691

C 0.559585 0.416222 0.511914
C 0.806124 0.525616 2.0324
C 0.632837 0.621229 3.40219
C 0.524541 0.763999 4.79219
C 0.524189 0.711939 5.82781
C 0.541282 0.531611 7.32701
C 0.493201 0.433603 8.89787
C 0.66405 0.418399 10.1644
C 0.413908 0.552487 11.2537
C 0.750508 2.0506 0.912225
C 0.82998 1.74435 1.84266
C 0.558192 1.79216 3.53167
C 0.798466 2.22475 4.92514
C 0.745185 2.19893 5.98112
C 0.672898 2.1988 7.15994
C 0.508313 1.88479 8.92929
C 0.730572 1.91755 9.90442
C 0.613864 2.00699 11.5269
C 0.770026 3.43253 0.728572
C 0.581187 3.4804 1.79382
C 0.922491 3.23478 3.48141
C 0.407478 3.41881 4.45307
C 0.633242 3.16411 6.11679
C 0.921662 3.18105 7.35607
C 0.482472 3.56616 8.76369
C 0.413282 3.36733 10.1919
C 0.638433 3.47937 11.4409
C 0.687572 4.55008 0.697394
C 0.831238 4.75279 1.96943
C 0.500535 4.48744 3.33904
C 0.534149 4.64267 4.49499
C 0.591769 4.52576 5.80942
C 0.707706 4.81208 7.09631
C 0.479371 4.52978 8.81104
C 0.499745 4.54357 9.97846
C 0.740619 4.91452 11.5974
C 0.530133 6.21863 0.540372
C 0.691336 6.21287 2.04471
C 0.655905 5.92652 3.0673
C 0.446869 6.26055 4.47234
C 0.733017 5.94993 6.15567
C 0.421376 6.07353 7.41359
C 0.815183 6.11428 8.85166
C 0.45661 6.24507 10.0272
C 0.532604 6.13596 11.5322
C 0.871183 7.29936 0.885735
C 0.414205 7.40662 2.21735
C 0.820551 7.53493 3.35967
C 0.703563 7.18466 4.55426
C 0.502961 7.39247 6.26625
C 0.820063 7.32507 7.15324
C 0.587247 7.46294 8.78888
C 0.849836 7.45673 10.2449
C 0.757007 7.27723 11.3406
C 0.546281 8.81487 0.778271
C 0.661341 8.75392 1.74102
C 0.559671 8.79292 3.1668
C 0.692408 8.77293 4.54658
C 0.511705 8.48577 6.25333
C 0.855933 8.86814 7.30813
C 0.558836 8.62175 8.40295
C 0.921351 8.61089 10.2231
C 0.486056 8.87709 11.375
C 0.741411 10.2228 0.611956
C 0.604446 10.1171 1.81884
C 0.70114 10.1859 3.08908
C 0.563535 10.001 4.78076
C 0.915787 9.76232 6.03791
C 0.492328 10.0226 7.16918
C 0.628755 10.1564 8.41547
C 0.669523 10.0018 9.78799
C 0.622467 10.0673 11.327
C 0.419542 11.5017 0.808741
C 0.771315 11.2219 2.17889
C 0.842525 11.2588 3.49703
C 0.470223 11.5646 4.83718
C 0.805733 11.5609 6.14268
C 0.761225 11.2465 7.0784
C 0.725939 11.2568 8.72514
C 0.490223 11.1745 9.76095
C 0.509102 11.1523 11.2109
C 1.99742 0.476447 0.443734
C 1.83367 0.846189 2.16683
C 2.15718 0.86725 3.34054
C 2.0112 0.565416 4.81564
C 1.84438 0.549622 5.7592
C 1.83551 0.850556 7.29566
C 1.90733 0.507945 8.75883
C 2.22642 0.843002 9.93901
C 1.97102 0.511486 11.2062
C 1.84296 2.04479 0.458486
C 1.77835 2.14313 1.77662
C 1.75144 1.97776 3.43866
C 2.0346 1.73763 4.58723
C 1.81677 1.99898 5.86505
C 2.12724 1.83245 7.36224
C 2.04747 1.90325 8.78712
C 1.88485 2.14003 9.89898
C 1.80521 2.25228 11.3673
C 2.17389 3.18721 0.720001
C 1.85594 3.4488 1.89632
C 1.88967 3.35015 3.25938
C 1.76212 3.19924 4.87846
C 2.16279 3.34279 6.0252
C 1.99491 3.18612 7.25829
C 2.06352 3.16548 8.82551
C 1.83343 3.31047 9.78423
C 1.75874 3.37814 11.2538
C 1.9158 4.419 0.717613
C 2.25906 4.51645 2.11021
C 2.0177 4.55033 3.3096
C 1.97733 4.9064 4.53913
C 1.90409 4.92286 6.25257
C 2.13617 4.71578 7.26028
C 1.99762 4.67481 8.4102
C 2.03885 4.87289 9.79711
C 2.17324 4.80953 11.4348
C 1.81977 6.16694 0.514262
C 2.13925 6.19077 1.90004
C 2.03724 5.77808 3.11096
C 2.20759 5.87842 4.4084
C 2.11893 5.94075 5.83902
C 2.02808 5.88842 7.1318
C 1.96425 6.21347 8.69975
C 1.79732 5.99256 10.2663
C 1.74705 5.8476 11.5257
C 1.77102 7.41713 0.54331
C 1.81082 7.59764 2.09232
C 2.19314 7.12022 3.33023
C 2.05511 7.24253 4.44244
C 1.90645 7.37696 5.97708
C 1.88779 7.35709 7.19167
C 1.86882 7.47244 8.54336
C 2.11144 7.31009 9.77752
C 1.95019 7.49218 11.1871
C 2.17888 8.62773 0.627028
C 1.92376 8.93114 2.12356
C 1.82932 8.85056 3.35909
C 1.82639 8.60313 4.57078
C 2.18959 8.47169 5.88033
C 1.98608 8.82518 7.5226
C 2.21499 8.73876 8.64483
C 1.96918 8.4914 9.94949
C 2.17066 8.63463 11.1102
C 1.89308 9.79996 0.692902
C 1.86428 9.95256 2.05282
C 2.23908 10.0983 3.33694
C 1.79479 10.0591 4.91263
C 2.0776 10.2657 6.04338
C 2.07204 10.1708 7.14099
C 1.86122 9.7494 8.55277
C 1.85749 10.027 10.1883
C 1.88714 9.73749 11.5445
C 1.93342 11.2043 0.932144
C 2.00691 11.1586 1.81821
C 2.1124 11.4444 3.46662
C 2.19334 11.2285 4.71081
C 2.00747 11.4894 5.84204
C 2.14802 11.1502 7.26691
C 1.92302 11.3362 8.89464
C 2.14016 11.3034 9.94538
C 1.88171 11.4432 11.5949
C 3.50791 0.928478 0.922463
C 3.30749 0.430176 2.23696
C 3.48459 0.455355 3.28815
C 3.39793 0.55041 4.88136
C 3.1278 0.69567 5.9895
C 3.3796 0.672658 7.23714
C 3.08193 0.848382 8.89142
C 3.23899 0.609858 9.88905
C 3.15494 0.735556 11.2905
C 3.47224 2.13033 0.663972
C 3.38175 1.90276 1.76782
C 3.55204 2.04034 3.39835
C 3.24632 2.03326 4.72915
C 3.37394 1.80417 5.8449
C 3.41849 1.75548 7.51079
C 3.49511 2.06922 8.91086
C 3.48629 2.04134 9.87922
C 3.21294 2.0101 11.4835
C 3.22023 3.18612 0.618862
C 3.08518 3.20832 2.23925
C 3.0809 3.27189 3.12459
C 3.23668 3.42525 4.48359
C 3.10756 3.46499 5.98687
C 3.38844 3.12479 7.34939
C 3.30884 3.34413 8.73388
C 3.42396 3.31358 9.80778
C 3.59026 3.07143 11.098
C 3.32934 4.80265 0.84703
C 3.23058 4.65871 2.14553
C 3.42787 4.74928 3.53227
C 3.33077 4.8397 4.55443
C 3.33168 4.57226 5.95435
C 3.56633 4.92313 7.27699
C 3.584 4.87686 8.62993
C 3.56661 4.8644 10.1179
C 3.46338 4.6847 11.5337
C 3.20992 5.91084 0.765532
C 3.09811 6.2201 2.08905
C 3.39309 6.12205 3.47489
C 3.3558 6.01899 4.86384
C 3.54511 5.91945 5.80147
C 3.20969 5.78937 7.57844
C 3.32088 5.73977 8.78934
C 3.16052 5.97933 9.76161
C 3.15188 5.96261 11.1195
C 3.41039 7.53613 0.596706
C 3.49689 7.3974 1.97311
C 3.12496 7.09739 3.13149
C 3.52999 7.39739 4.42967
C 3.54222 7.148 5.75992
C 3.58096 7.53149 7.58442
C 3.53515 7.28497 8.62056
C 3.39745 7.0718 10.0897
C 3.39844 7.23253 11.544
C 3.58596 8.66988 0.759754
C 3.59166 8.5704 2.16901
C 3.41675 8.46623 3.15828
C 3.58426 8.44416 4.66565
C 3.33161 8.55639 5.92113
C 3.17748 8.92611 7.21433
C 3.24957 8.91573 8.51975
C 3.47901 8.47337 9.85291
C 3.14484 8.57772 11.4229
C 3.12025 10.0784 0.631953
C 3.35987 10.1763 1.87538
C 3.31176 10.053 3.52056
C 3.43898 10.1839 4.90404
C 3.59285 10.1461 6.01417
C 3.54127 9.84977 7.29193
C 3.50274 9.83219 8.59488
C 3.21914 10.2208 10.0034
C 3.38449 10.0407 11.0977
C 3.16952 11.2537 0.42119
C 3.47591 11.4303 1.86598
C 3.11196 11.2123 3.43804
C 3.5899 11.5159 4.79029
C 3.25464 11.3326 6.12824
C 3.41549 11.3381 7.42295
C 3.40863 11.3009 8.61859
C 3.24375 11.309 9.7385
C 3.47028 11.2082 11.3334
C 4.51252 0.843126 0.555157
C 4.6595 0.778004 1.78184
C 4.78898 0.415133 3.54811
C 4.82106 0.870359 4.66096
C 4.79231 0.418027 5.78429
C 4.77457 0.842306 7.30695
C 4.92673 0.83521 8.83869
C 4.58489 0.673196 9.87731
C 4.42348 0.840056 11.356
C 4.65324 1.90581 0.577915
C 4.74871 1.76946 2.02927
C 4.41379 2.0775 3.5561
C 4.78905 1.90027 4.73312
C 4.69947 1.88082 6.10914
C 4.92667 1.74181 7.17893
C 4.84444 2.14472 8.44052
C 4.87917 1.85817 10.2163
C 4.69142 1.95439 11.158
C 4.53459 3.18474 0.78798
C 4.65364 3.54291 2.1927
C 4.44947 3.08236 3.30244
C 4.86132 3.46415 4.90877
C 4.44302 3.44422 6.21501
C 4.54117 3.51071 7.23301
C 4.48181 3.10443 8.41125
C 4.6777 3.19684 9.83212
C 4.44411 3.55856 11.0778
C 4.90114 4.63537 0.500455
C 4.74618 4.44193 1.90748
C 4.41715 4.65781 3.35858
C 4.53234 4.67018 4.51998
C 4.45351 4.49734 6.01479
C 4.74975 4.72571 7.17304
C 4.46239 4.40777 8.91061
C 4.86049 4.60186 9.85246
C 4.49278 4.73686 11.3846
C 4.6953 6.25544 0.466976
C 4.73084 6.09593 1.95232
C 4.86139 6.13491 3.50218
C 4.66216 5.94222 4.69413
C 4.92743 6.26656 6.13987
C 4.58304 5.787 7.21335
C 4.57331 5.97891 8.84291
C 4.60378 6.15685 9.88678
C 4.78643 6.01309 11.5788
C 4.74995 7.1389 0.47937
C 4.49835 7.22195 1.98877
C 4.73798 7.4519 3.53386
C 4.78334 7.1434 4.47577
C 4.75863 7.32936 5.91519
C 4.78937 7.20312 7.55398
C 4.78388 7.19804 8.46429
C 4.86329 7.50058 10.2427
C 4.40406 7.49214 11.5217
C 4.40063 8.86762 0.550848
C 4.77573 8.59824 1.80852
C 4.52995 8.50653 3.58805
C 4.58513 8.49406 4.5492
C 4.75621 8.47456 6.00806
C 4.73985 8.77585 7.16527
C 4.53076 8.81597 8.7383
C 4.87815 8.44256 9.91913
C 4.45591 8.83804 11.1104
C 4.48764 10.1178 0.561376
C 4.65478 10.2293 1.92936
C 4.60241 10.0652 3.39733
C 4.59041 9.97668 4.71776
C 4.64524 9.89022 6.18431
C 4.71758 10.1577 7.40511
C 4.61664 10.1938 8.91088
C 4.54576 9.85573 9.84617
C 4.87134 9.94451 11.452
C 4.76019 11.5 0.844558
C 4.62107 11.3449 2.21819
C 4.66375 11.31 3.27507
C 4.68917 11.4189 4.76873
C 4.91219 11.4901 5.86054
C 4.80996 11.1067 7.23919
C 4.8695 11.3157 8.58537
C 4.70958 11.5013 10.0263
C 4.58411 11.4739 11.4196
C 6.25686 0.441111 0.684878
C 5.9392 0.652645 2.07404
C 6.19184 0.445923 3.15408
C 6.00588 0.89592 4.9265
C 6.15827 0.400177 6.0421
C 5.80471 0.499554 7.19613
C 6.12372 0.628514 8.5014
C 6.03576 0.555383 10.0611
C 6.18875 0.788177 11.4269
C 5.90087 1.992 0.627422
C 6.15181 2.03182 1.86435
C 6.09968 2.19577 3.43292
C 6.23048 1.99468 4.88741
C 6.18984 1.77003 5.88547
C 5.81309 1.89385 7.21609
C 6.12065 1.98245 8.67148
C 5.80717 2.17562 10.1661
C 5.80693 1.79084 11.2199
C 6.1094 3.16316 0.823876
C 6.08891 3.17215 1.8717
C 5.85556 3.5254 3.08122
C 6.07124 3.38905 4.58981
C 6.08094 3.08919 6.1223
C 6.08519 3.10841 7.33973
C 5.77854 3.3622 8.45389
C 5.782 3.34975 10.162
C 6.26125 3.25449 11.5564
C 6.1895 4.59862 0.476414
C 5.75682 4.46427 1.96606
C 6.15878 4.43873 3.40425
C 5.87644 4.80895 4.56193
C 5.76997 4.7353 5.84193
C 5.7869 4.45333 7.35942
C 5.98449 4.83218 8.52701
C 6.02962 4.42114 9.8244
C 6.1821 4.40393 11.5997
C 5.85277 6.16178 0.843903
C 6.13931 6.04571 1.76905
C 6.10205 5.88327 3.54265
C 6.1407 5.96855 4.54509
C 5.88993 6.25182 5.81646
C 6.03792 5.97515 7.29957
C 5.96865 6.0132 8.57021
C 6.17776 5.92599 9.92765
C 5.95945 6.00453 11.2638
C 6.19524 7.18909 0.92332
C 5.96874 7.26877 2.17872
C 6.0204 7.32152 3.19901
C 6.0798 7.17845 4.6897
C 5.98524 7.27028 5.92206
C 5.94566 7.13654 7.56698
C 5.9797 7.51539 8.78242
C 5.78728 7.10041 9.86069
C 5.96392 7.34519 11.1977
C 5.88447 8.79163 0.716793
C 5.80691 8.69212 2.01199
C 5.89282 8.9157 3.19567
C 5.95446 8.58973 4.90573
C 5.74576 8.76994 6.23152
C 6.03311 8.88402 7.13796
C 6.03356 8.9272 8.71005
C 6.11927 8.49088 10.1672
C 6.19521 8.55542 11.4985
C 6.02273 10.216 0.449006
C 5.91387 9.91136 1.78254
C 6.13229 9.96882 3.55529
C 5.77101 9.85475 4.54086
C 5.76472 9.74839 6.05532
C 6.1044 10.0395 7.31824
C 6.20926 10.2623 8.8195
C 6.19765 9.83435 9.91842
C 6.07245 10.1473 11.3776
C 6.17268 11.1789 0.596191
C 6.04458 11.3283 2.04189
C 6.07168 11.1925 3.35259
C 5.92212 11.2149 4.86772
C 5.853 11.0937 6.20077
C 5.91168 11.2144 7.48851
C 6.07976 11.5851 8.42731
C 6.09066 11.3548 9.87404
C 5.7384 11.3495 11.177
C 7.31885 0.437354 0.472288
C 7.07906 0.658488 2.14177
C 7.16562 0.606436 3.3053
C 7.0995 0.836505 4.73764
C 7.11501 0.623993 6.11395
C 7.3554 0.800288 7.23596
C 7.12534 0.931872 8.91303
C 7.15674 0.711765 10.1091
C 7.07714 0.887236 11.2471
C 7.50589 1.96982 0.64967
C 7.53297 2.02691 2.01017
C 7.58926 2.09289 3.43558
C 7.45527 2.24453 4.54588
C 7.18227 2.25561 6.04994
C 7.13427 1.9735 7.33241
C 7.25379 2.24942 8.65526
C 7.54842 1.95281 9.96645
C 7.27222 2.07279 11.2377
C 7.51448 3.14197 0.884854
C 7.20807 3.57451 2.18302
C 7.09236 3.45059 3.48196
C 7.08566 3.3815 4.6035
C 7.59211 3.19768 6.11211
C 7.30936 3.13268 7.24458
C 7.35365 3.46954 8.88415
C 7.09283 3.36035 10.1228
C 7.59288 3.37744 11.3387
C 7.27374 4.7543 0.429824
C 7.5152 4.78878 2.0354
C 7.11849 4.47632 3.188
C 7.36767 4.77558 4.77628
C 7.52787 4.42075 6.23783
C 7.22144 4.65157 7.41797
C 7.42295 4.76185 8.90859
C 7.2576 4.87073 9.74653
C 7.55322 4.84282 11.4389
C 7.59407 5.81506 0.64067
C 7.21125 5.93307 1.93372
C 7.45532 6.10206 3.44688
C 7.37022 6.26572 4.53413
C 7.58667 6.17814 5.90909
C 7.47443 6.26412 7.38192
C 7.32229 6.05527 8.51784
C 7.38311 5.84255 10.1928
C 7.24456 5.796 11.4843
C 7.55848 7.45724 0.456822
C 7.41048 7.47303 2.11411
C 7.30235 7.09725 3.53555
C 7.12036 7.56391 4.82089
C 7.32515 7.32218 6.2155
C 7.34361 7.29275 7.35228
C 7.38228 7.07329 8.85074
C 7.25774 7.29885 10.1559
C 7.26587 7.28484 11.3104
C 7.2106 8.83 0.718805
C 7.35382 8.46499 1.76199
C 7.09997 8.59179 3.54523
C 7.12593 8.72298 4.53747
C 7.14175 8.52593 6.0509
C 7.30836 8.59047 7.23565
C 7.17638 8.54329 8.74596
C 7.13797 8.92362 10.1383
C 7.50538 8.51736 11.2481
C 7.22148 10.0783 0.641172
C 7.10612 9.93159 2.02806
C 7.45958 10.1455 3.38591
C 7.22961 10.1454 4.76556
C 7.55488 9.78285 6.0306
C 7.43786 9.97207 7.3169
C 7.40506 10.1075 8.54687
C 7.24837 10.2567 10.1927
C 7.49653 9.90993 11.2087
C 7.37003 11.5409 0.476011
C 7.25367 11.0706 2.02304
C 7.43877 11.1434 3.47452
C 7.43323 11.4381 4.4463
C 7.15131 11.2959 6.12604
C 7.34282 11.2742 7.25474
C 7.55224 11.0991 8.78773
C 7.34941 11.1477 9.87784
C 7.58668 11.2463 11.3059
C 8.72323 0.473782 0.448635
C 8.73941 0.824971 1.82359
C 8.546 0.832595 3.28985
C 8.48572 0.486559 4.78937
C 8.58723 0.507968 5.9542
C 8.49805 0.808932 7.45394
C 8.48447 0.412354 8.57476
C 8.54481 0.68776 9.85107
C 8.61397 0.87314 11.13
C 8.7756 1.917 0.87989
C 8.84509 1.82947 1.99013
C 8.6417 2.14378 3.25775
C 8.7233 1.803 4.65711
C 8.55083 1.85763 6.22931
C 8.79636 2.01902 7.54648
C 8.68431 2.01098 8.61462
C 8.66781 2.03835 9.80008
C 8.62993 2.14809 11.1651
C 8.8354 3.43714 0.802401
C 8.88996 3.11359 2.10877
C 8.53106 3.58771 3.40549
C 8.60203 3.39165 4.45977
C 8.72718 3.2593 5.93423
C 8.79985 3.27128 7.11941
C 8.52748 3.19312 8.44896
C 8.80038 3.17889 9.94438
C 8.78751 3.43464 11.5543
C 8.80159 4.67287 0.916211
C 8.6312 4.87667 1.97279
C 8.45774 4.74853 3.21712
C 8.60082 4.69175 4.93011
C 8.54411 4.5973 6.06801
C 8.69947 4.59882 7.32688
C 8.49459 4.90873 8.7812
C 8.83326 4.59898 9.96433
C 8.7013 4.41173 11.3854
C 8.85246 5.97721 0.599275
C 8.8144 5.7355 1.83666
C 8.48297 6.01176 3.57546
C 8.80147 6.0784 4.54176
C 8.56183 6.13433 6.08053
C 8.48366 5.87052 7.2156
C 8.51084 6.19652 8.71232
C 8.43347 6.17966 9.7825
C 8.6525 5.76844 11.2148
C 8.85414 7.18539 0.587773
C 8.57366 7.30218 2.11294
C 8.76055 7.08922 3.49436
C 8.42407 7.35642 4.91799
C 8.59595 7.13577 6.06012
C 8.49576 7.484 7.27989
C 8.57764 7.53887 8.69327
C 8.93207 7.24958 9.77839
C 8.79375 7.15447 11.5652
C 8.71637 8.90289 0.677316
C 8.45664 8.41004 1.90514
C 8.49845 8.67143 3.30737
C 8.52176 8.91848 4.89549
C 8.65305 8.5363 5.89185
C 8.56742 8.86323 7.55686
C 8.7493 8.75845 8.41574
C 8.48013 8.5614 9.82022
C 8.89693 8.85755 11.4613
C 8.85925 9.8815 0.435267
C 8.60446 9.90231 2.20703
C 8.67602 9.85575 3.48296
C 8.69303 9.81188 4.46849
C 8.57107 10.2274 6.22939
C 8.50696 10.1019 7.14558
C 8.77976 10.0038 8.79491
C 8.88003 9.87614 9.92839
C 8.85303 9.97038 11.1589
C 8.47067 11.5402 0.406883
C 8.87641 11.2105 2.17832
C 8.81369 11.371 3.49544
C 8.44397 11.3965 4.4404
C 8.40902 11.1452 5.81697
C 8.82823 11.4793 7.50938
C 8.47767 11.3403 8.89062
C 8.92852 11.255 10.0937
C 8.40672 11.4662 11.4773
C 9.91797 0.672108 0.925127
C 9.94921 0.843904 2.16625
C 10.0163 0.796654 3.50362
C 10.1391 0.429365 4.60788
C 10.1781 0.64056 6.16084
C 9.78377 0.650201 7.3981
C 10.0436 0.654977 8.46734
C 9.79886 0.401726 9.94555
C 10.1392 0.836702 11.5227
C 10.1407 1.95026 0.414503
C 9.7482 2.01207 2.17833
C 9.86069 1.90357 3.46608
C 10.1088 1.79721 4.92565
C 10.2038 2.24901 6.01154
C 9.86936 2.00488 7.22341
C 10.0107 1.90274 8.67316
C 10.2666 2.06289 9.84845
C 10.0713 1.80725 11.3347
C 9.79811 3.17496 0.700901
C 9.9096 3.51612 2.1782
C 9.8321 3.33636 3.47878
C 10.2645 3.13283 4.42436
C 10.0248 3.11817 5.76635
C 9.99031 3.09847 7.20466
C 9.99875 3.06887 8.68771
C 10.0278 3.51188 9.73844
C 10.239 3.49507 11.2797
C 9.93389 4.42756 0.589693
C 10.1627 4.83986 1.97154
C 10.1301 4.60415 3.28802
C 10.0079 4.67157 4.86916
C 10.122 4.45823 5.78592
C 9.74898 4.42994 7.26092
C 10.0646 4.6329 8.64622
C 9.78744 4.91213 10.1746
C 10.2396 4.55239 11.2291
C 10.1083 6.1023 0.551427
C 10.2331 6.10495 2.22553
C 10.0967 5.98768 3.12809
C 10.0107 5.9231 4.47003
C 10.1608 5.74217 5.90541
C 10.154 6.08213 7.37922
C 9.98346 5.81354 8.66574
C 9.96356 5.85433 10.1916
C 10.2264 6.14187 11.2852
C 9.823 7.38322 0.792169
C 9.98853 7.16461 1.94803
C 10.1671 7.57004 3.54027
C 10.1239 7.07115 4.54407
C 9.83233 7.49507 5.91559
C 10.0535 7.07652 7.27864
C 10.253 7.16818 8.91362
C 10.2162 7.2612 9.94766
C 9.74504 7.07072 11.5039
C 9.78945 8.59426 0.856889
C 9.74087 8.59146 2.00425
C 9.90833 8.74799 3.26967
C 9.88718 8.55758 4.83109
C 9.7967 8.9143 5.83538
C 10.1962 8.62564 7.47787
C 9.91915 8.78959 8.58492
C 9.96705 8.41697 10.1238
C 10.0303 8.59492 11.2864
C 9.9254 10.018 0.895359
C 9.90562 9.8505 1.86907
C 9.98895 9.88394 3.59433
C 9.87289 10.2628 4.59451
C 10.1151 9.77447 5.95898
C 10.1827 9.94294 7.33161
C 9.81911 9.80126 8.73735
C 9.73449 9.97521 9.84554
C 9.79372 10.1974 11.1284
C 10.2335 11.3438 0.495893
C 10.2093 11.4995 2.10133
C 10.1114 11.3871 3.23709
C 10.0469 11.3313 4.85297
C 9.98158 11.1377 6.00209
C 9.86112 11.5418 7.18216
C 9.96099 11.1016 8.85258
C 9.90445 11.2363 10.2135
C 9.85503 11.103 11.3587
C 11.3692 0.565398 0.515448
C 11.1424 0.880733 1.94115
C 11.1225 0.676838 3.08139
C 11.0958 0.871565 4.66369
C 11.5139 0.893102 5.83409
C 11.0955 0.560909 7.46849
C 11.5003 0.900339 8.52772
C 11.524 0.717108 9.77304
C 11.2921 0.611221 11.1845
C 11.2662 2.25871 0.481709
C 11.546 2.03825 2.20435
C 11.1828 2.17547 3.57539
C 11.2352 1.75536 4.92943
C 11.5991 1.91724 6.00999
C 11.2507 2.23413 7.36017
C 11.1881 2.08621 8.45546
C 11.4361 1.98108 9.88134
C 11.078 2.26325 11.2643
C 11.3624 3.18588 0.89017
C 11.4794 3.42617 1.73588
C 11.1483 3.33232 3.39389
C 11.5131 3.59122 4.54279
C 11.5326 3.14556 5.86593
C 11.4019 3.24102 7.27528
C 11.5939 3.55545 8.47975
C 11.1462 3.23495 9.85459
C 11.1711 3.22232 11.126
C 11.1289 4.48378 0.457821
C 11.1365 4.9139 2.00432
C 11.3985 4.43267 3.31068
C 11.325 4.55479 4.86756
C 11.1803 4.51789 6.26037
C 11.3478 4.7307 7.20177
C 11.3645 4.81819 8.6394
C 11.2781 4.77785 9.88589
C 11.2905 4.77166 11.195
C 11.4249 5.7755 0.8894
C 11.35 6.15915 2.12747
C 11.2997 5.91566 3.37916
C 11.4859 6.04256 4.76578
C 11.5434 5.88683 5.76817
C 11.5577 5.9925 7.22854
C 11.1492 5.80897 8.73751
