1350

C 0.524611 0.390208 0.479919
C 0.755741 0.492765 1.90537
C 0.593284 0.582403 3.18955
C 0.491757 0.716249 4.49268
C 0.491427 0.667443 5.46357
C 0.507452 0.498386 6.86907
C 0.462376 0.406503 8.34175
C 0.622547 0.392249 9.52909
C 0.388039 0.517957 10.5503
C 0.703601 0.672434 12.1052
C 0.778106 0.385329 12.9775
C 0.523305 0.430152 14.5609
C 0.748562 2.0857 0.867314
C 0.698611 2.0615 1.8573
C 0.630842 2.06137 2.96244
C 0.476544 1.76699 4.62121
C 0.684911 1.79771 5.53539
C 0.575497 1.88156 7.05645
C 0.7219 1.968 8.18304
C 0.544863 2.01288 9.1817
C 0.864835 1.78261 10.7638
C 0.382011 1.95513 11.6748
C 0.593664 1.71635 13.2345
C 0.864059 1.73223 14.3963
C 0.452317 3.34328 0.71596
C 0.387452 3.15687 2.05492
C 0.598531 3.26191 3.22588
C 0.644598 3.0157 4.40381
C 0.779286 3.20574 5.59634
C 0.469251 2.95698 6.88035
C 0.500765 3.1025 7.96405
C 0.554783 2.9929 9.19633
C 0.663474 3.26133 10.4028
C 0.449411 2.99667 12.0104
C 0.468511 3.0096 13.1048
C 0.69433 3.35736 14.6226
C 0.497 4.57997 0.506598
C 0.648127 4.57456 1.91692
C 0.614911 4.30612 2.8756
C 0.41894 4.61926 4.19282
C 0.687203 4.32806 5.77094
C 0.39504 4.44393 6.95024
C 0.764234 4.48214 8.29843
C 0.428072 4.60476 9.40049
C 0.499316 4.50246 10.8115
C 0.816734 4.34315 12.0804
C 0.388317 4.4437 13.3288
C 0.769267 4.564 14.3997
C 0.65959 5.48562 0.519618
C 0.471526 5.68044 2.12461
C 0.768809 5.61726 2.95617
C 0.550544 5.7465 4.48958
C 0.796721 5.74068 5.85461
C 0.709694 5.5724 6.88184
C 0.512139 5.76394 8.22963
C 0.620007 5.7068 9.13221
C 0.524692 5.74336 10.4689
C 0.649133 5.72462 11.7624
C 0.479723 5.45541 13.3625
C 0.802437 5.81388 14.3514
C 0.523909 6.83289 0.377766
C 0.863766 6.82271 2.08413
C 0.455678 7.07227 3.1641
C 0.695073 7.0839 4.32371
C 0.566668 6.98483 5.45516
C 0.657318 7.04926 6.64601
C 0.528314 6.87596 8.23196
C 0.85855 6.65218 9.41054
C 0.461557 6.89617 10.4711
C 0.589458 7.02165 11.6395
C 0.627678 6.87668 12.9262
C 0.583563 6.9381 14.3691
C 0.39332 8.28283 0.758194
C 0.723108 8.02053 2.04271
C 0.789868 8.05513 3.27847
C 0.440834 8.34185 4.53485
C 0.755375 8.33831 5.75876
C 0.713649 8.04356 6.636
C 0.680568 8.05322 8.17982
C 0.459584 7.97609 9.15089
C 0.477284 7.9553 10.5102
C 0.62258 7.94667 11.666
C 0.469063 8.2933 13.2814
C 0.772361 8.31305 14.3818
C 0.635496 9.28008 0.764665
C 0.479102 9.26527 1.64925
C 0.470789 9.5474 3.08968
C 0.538123 9.2262 4.46141
C 0.837273 9.54031 5.56782
C 0.59783 9.22952 6.75581
C 0.477772 9.41699 7.92983
C 0.417208 9.50919 9.16558
C 0.391971 9.35415 10.7237
C 0.657442 9.12903 11.8005
C 0.453226 9.37404 12.9985
C 0.744286 9.21792 14.4021
C 0.6695 10.5343 0.737923
C 0.517047 10.7563 1.7803
C 0.442382 10.8615 3.15684
C 0.788019 10.488 4.425
C 0.489944 10.7333 5.5278
C 0.521562 10.6408 6.80567
C 0.40199 10.4993 8.32356
C 0.777616 10.6339 9.39862
C 0.620232 10.487 10.5546
C 0.684549 10.4676 12.0239
C 0.468844 10.6036 12.9227
C 0.398817 10.667 14.3004
C 0.546061 11.6428 0.672762
C 0.867867 11.7342 1.97832
C 0.641594 11.7659 3.10275
C 0.603742 12.0998 4.25543
C 0.535082 12.1152 5.86178
C 0.752658 11.921 6.80652
C 0.622769 11.8826 7.88457
C 0.661425 12.0683 9.18479
C 0.787411 12.0089 10.7201
C 0.456032 12.0315 11.7321
C 0.755551 12.0538 13.0313
C 0.659914 11.6669 14.1665
C 0.819615 13.011 0.382875
C 0.736498 13.0694 1.72408
C 0.651322 13.0204 2.93606
C 0.591484 13.3251 4.40602
C 0.434989 13.118 5.87467
C 0.387858 12.9821 7.05536
C 0.410332 13.2036 8.00935
C 0.447648 13.3728 9.46155
C 0.806073 12.9252 10.6221
C 0.67667 13.0399 11.6648
C 0.537301 13.1659 13.1035
C 0.519807 13.1473 14.2422
C 0.502023 14.5054 0.5094
C 0.729479 14.3532 1.66642
C 0.578302 14.5239 2.98792
C 0.792696 14.3385 4.33784
C 0.553527 14.6229 5.74084
C 0.464988 14.5474 6.89915
C 0.462237 14.3154 8.03511
C 0.802742 14.1922 9.26281
C 0.611949 14.5236 10.8024
C 0.826557 14.4426 11.8545
C 0.596103 14.2107 13.0776
C 0.784991 14.345 14.1659
C 1.77476 0.437461 0.649595
C 1.74776 0.580527 1.92452
C 2.09914 0.717164 3.12838
C 1.68261 0.680437 4.60559
C 1.94775 0.874125 5.66567
C 1.94254 0.785161 6.69468
C 1.74489 0.390062 8.01822
C 1.7414 0.650327 9.55153
C 1.7692 0.378894 10.823
C 1.81258 0.504053 12.1239
C 1.88148 0.461189 12.9546
C 1.98038 0.72916 14.5
C 2.05626 1.77671 0.666382
C 1.882 2.02133 1.72692
C 2.01377 1.70334 3.06273
C 1.80283 1.87766 4.58873
C 2.0064 1.84694 5.57379
C 1.7641 1.97798 7.12026
C 2.03867 2.12045 8.36481
C 1.85077 1.65329 9.59715
C 2.0168 1.6769 10.5826
C 1.93556 1.76601 12.0763
C 1.68231 1.90219 13.1152
C 1.91838 1.88062 14.2848
C 1.6393 3.29536 0.835711
C 1.78655 3.07174 1.77099
C 1.70775 3.18958 3.08482
C 2.00522 3.24718 4.37247
C 1.92039 3.03383 5.40734
C 2.08004 3.16282 6.93595
C 1.79343 3.15618 8.18358
C 1.91307 2.94141 9.22959
C 1.95483 2.89576 10.7914
C 2.02667 3.1899 12.1039
C 2.01839 3.16376 13.0118
C 1.76213 3.13447 14.5158
C 1.76896 4.23699 0.580183
C 1.64235 4.2578 2.0993
C 1.63834 4.31739 2.9293
C 1.78439 4.46117 4.20336
C 1.66334 4.49843 5.61269
C 1.92666 4.17949 6.89005
C 1.85203 4.38512 8.18801
C 1.95996 4.35649 9.19479
C 2.11587 4.12946 10.4043
C 1.87126 4.50249 12.0441
C 1.77867 4.36754 13.2614
C 1.96363 4.45245 14.5615
C 1.8726 5.78722 0.519776
C 1.87345 5.53649 1.8322
C 2.09344 5.86543 3.07218
C 2.11 5.82206 4.34056
C 2.0937 5.81038 5.7355
C 1.99691 5.64191 7.06283
C 1.7593 5.54141 8.21769
C 1.65448 5.83135 9.45848
C 1.93103 5.73942 10.7577
C 1.89606 5.6428 12.0598
C 2.07354 5.54948 12.9389
C 1.75908 5.42754 14.6048
C 1.86332 6.63103 0.740002
C 1.71298 6.85562 1.65151
C 1.70489 6.83994 2.92455
C 1.94724 7.06513 4.30941
C 2.02833 6.93506 5.59979
C 1.67965 6.6538 6.68577
C 2.05936 6.93505 7.90281
C 2.07083 6.70125 9.14993
C 2.10715 7.06077 10.8604
C 2.0642 6.82966 11.8318
C 1.93511 6.62981 13.2091
C 1.93604 6.7805 14.5725
C 2.11184 8.12801 0.71227
C 2.11719 8.03475 2.03345
C 1.9532 7.93709 2.96089
C 2.11025 7.9164 4.37405
C 1.87339 8.02162 5.55106
C 1.72888 8.36823 6.76343
C 1.79648 8.3585 7.98727
C 2.01157 7.94379 9.2371
C 1.69828 8.04162 10.709
C 1.67524 8.19854 11.8425
C 1.89988 8.29025 13.0082
C 1.85477 8.17472 14.5505
C 1.97405 9.54744 0.847541
C 2.1183 9.51197 1.88828
C 2.06994 9.23416 3.08619
C 2.03382 9.21768 4.3077
C 1.76794 9.58197 5.62816
C 1.92296 9.41316 6.6541
C 1.72143 9.30032 7.89487
C 2.00867 9.46588 9.24936
C 1.66746 9.26157 10.7232
C 2.11553 9.54616 11.9909
C 1.80122 9.37432 13.2452
C 1.95202 9.37947 14.459
C 1.94559 10.5946 0.579924
C 1.79102 10.6022 1.62984
C 2.00339 10.5077 3.12505
C 1.73049 10.7904 4.27046
C 1.86828 10.7294 5.42048
C 1.98967 10.3892 7.07635
C 2.01974 10.816 8.11965
C 1.99279 10.3919 9.17277
C 1.97616 10.7897 10.6003
C 2.11881 10.783 12.0363
C 1.79834 10.6311 13.01
C 1.64701 10.7876 14.3963
C 1.86241 11.7867 0.541795
C 1.95192 11.6589 1.90244
C 1.63793 11.9477 3.33385
C 1.98974 11.7815 4.4373
C 1.90575 11.7633 5.72732
C 2.11875 11.6329 6.73025
C 2.04166 12.0107 7.91299
C 2.07422 11.742 9.5778
C 1.8982 11.8322 10.4606
C 1.75117 11.7357 11.9887
C 1.86278 12.0715 13.3057
C 1.67138 11.6397 14.346
C 2.05749 13.2476 0.851976
C 1.66533 13.229 2.07658
C 1.75735 13.2913 3.03095
C 1.7017 12.9104 4.13555
C 1.88535 12.997 5.46761
C 1.66635 13.3361 6.63541
C 2.09482 13.0957 7.96918
C 1.94954 12.9143 9.28827
C 1.64108 13.1167 10.6487
C 1.74907 13.1283 11.7375
C 1.67516 12.9663 13.1389
C 1.95289 13.1804 14.2247
C 1.68349 14.1323 0.853695
C 2.05671 14.3142 1.73668
C 1.71198 14.4408 3.17305
C 1.90185 14.6145 4.18779
C 1.93516 14.4649 5.5803
C 2.05755 14.5015 7.0333
C 1.87077 14.3208 8.15075
C 2.11947 14.6249 9.50613
C 1.7966 14.1753 10.5125
C 1.78748 14.3552 12.0402
C 1.81605 14.522 13.0189
C 1.98728 14.3873 14.6051
C 3.20308 0.442714 0.449409
C 2.9672 0.520579 1.86447
C 3.19185 0.736155 3.31299
C 3.23438 0.446939 4.19603
C 3.21121 0.621277 5.54549
C 3.24003 0.50292 7.08185
C 3.23489 0.498167 7.93527
C 3.30934 0.781793 9.60251
C 2.8788 0.773877 10.8016
C 2.87559 0.813397 11.7664
C 3.22725 0.560849 12.9455
C 2.99683 0.474868 14.6138
C 3.04856 1.71319 0.514872
C 3.20894 1.6949 1.88256
C 3.19361 1.97736 2.96744
C 2.99759 2.01498 4.44216
C 3.32327 1.6649 5.54919
C 2.92741 2.03566 6.66597
C 2.95716 1.98542 8.02629
C 3.11386 2.08997 9.30877
C 3.06476 1.93611 10.685
C 3.05351 1.85314 11.9229
C 3.10491 1.77208 13.2978
C 3.17273 2.02286 14.4423
C 3.0781 3.30666 0.853945
C 3.01165 2.98975 1.73079
C 3.31688 3.07297 3.23624
C 3.21268 3.28125 4.54177
C 3.08225 3.13587 5.82956
C 3.12226 3.10316 6.82038
C 3.1461 3.20518 8.22069
C 3.35518 3.27201 9.24426
C 3.25934 2.91252 10.5367
C 3.31516 3.10845 11.7988
C 3.16523 3.2825 13.1497
C 3.0476 3.25674 14.4558
C 3.36581 4.16354 0.642073
C 3.068 4.36185 1.94442
C 3.30485 4.16805 2.95695
C 3.13052 4.58992 4.6186
C 3.27338 4.12517 5.66447
C 2.94191 4.21833 6.74637
C 3.24099 4.33923 7.97007
C 3.15852 4.27067 9.43228
C 3.30196 4.48892 10.7127
C 3.03206 4.3675 11.8382
C 3.26732 4.40483 12.9978
C 3.21845 4.55853 14.4684
C 3.34107 5.62001 0.831948
C 3.30298 5.4094 1.76762
C 2.94977 5.52548 3.01508
C 3.23811 5.60855 4.37951
C 2.94422 5.78964 5.78073
C 2.94399 5.42891 6.76868
C 3.22757 5.46546 8.27238
C 3.20835 5.4739 9.25471
C 2.98959 5.80506 10.3886
C 3.19179 5.67724 11.803
C 3.20088 5.39611 13.2397
C 3.20486 5.41414 14.381
C 2.91738 6.90206 0.425517
C 2.92062 6.89039 2.02686
C 3.36992 6.80108 3.33412
C 3.30266 6.81121 4.19664
C 2.89702 6.68526 5.59318
C 3.27385 6.66131 6.94148
C 3.00916 7.00839 8.02681
C 2.90935 6.93934 9.22681
C 2.92522 6.675 10.6495
C 3.11046 7.03017 11.7441
C 3.15277 6.64482 12.9604
C 3.29572 6.62869 14.6247
C 2.98697 8.27667 0.791159
C 3.2556 8.16786 1.65849
C 3.22067 8.01556 3.32124
C 3.25691 8.09551 4.26102
C 3.02181 8.36108 5.45293
C 3.16055 8.1017 6.84334
C 3.09561 8.13737 8.03457
C 3.29165 8.05562 9.30717
C 3.08698 8.12925 10.5598
C 3.30804 7.98977 12.1156
C 3.09569 8.06447 13.2926
C 3.14413 8.11393 14.2491
C 3.19981 9.22979 0.646597
C 3.11116 9.31588 1.80193
C 3.07406 9.19051 3.34404
C 3.10597 9.54568 4.48351
C 2.92558 9.15663 5.4944
C 3.09118 9.38612 6.74787
C 3.01669 9.49216 8.17199
C 2.94398 9.39886 9.38624
C 3.02452 9.60847 10.4959
C 3.08231 9.30287 12.0991
C 2.88665 9.47182 13.3421
C 3.15604 9.57877 14.1918
C 3.15646 10.8692 0.665674
C 3.23682 10.4602 2.03179
C 3.30801 10.5207 3.27982
C 3.14631 10.8275 4.17094
C 3.04425 10.5419 5.42113
C 3.24902 10.5958 7.08309
C 2.91032 10.4888 8.00706
C 2.90442 10.3891 9.42686
C 3.22288 10.6621 10.6109
C 3.32118 10.8709 12.0183
C 3.3103 10.4697 13.0485
C 3.19293 10.7631 14.4165
C 3.28689 11.7302 0.558929
C 3.1668 11.8703 1.91427
C 3.1922 11.7429 3.14305
C 3.05199 11.7639 4.56348
C 2.98719 11.6503 5.81322
C 3.0422 11.7635 7.02048
C 3.19977 12.111 7.9006
C 3.21 11.8951 9.25691
C 2.87975 11.8902 10.4784
C 3.11142 11.66 11.6928
C 2.88662 11.8673 13.2579
C 2.96777 11.8185 14.3487
C 2.90579 13.2842 0.691537
C 2.92032 13.085 1.98183
C 3.14568 13.2503 3.03372
C 2.93001 13.3736 4.60597
C 2.95945 13.1673 5.72723
C 2.88481 13.3318 6.79412
C 3.28678 13.0967 8.10907
C 3.31216 13.1502 9.38453
C 3.36493 13.2121 10.7209
C 3.23931 13.3542 11.7618
C 2.98338 13.3646 13.1718
C 2.93838 13.1002 14.3741
C 3.05043 14.6088 0.614302
C 3.32664 14.3308 1.84355
C 3.06771 14.4432 3.03532
C 3.29483 14.1956 4.57955
C 3.00756 14.6011 5.79658
C 2.89909 14.4849 7.01433
C 2.89281 14.4202 8.06578
C 3.3676 14.2478 9.4801
C 3.10253 14.1869 10.5418
C 3.14405 14.5027 12.0789
C 2.89953 14.4003 13.2401
C 3.36832 14.4164 14.38
C 4.31914 0.707155 0.40296
C 4.5455 0.739478 1.90819
C 4.17359 0.446554 2.98875
C 4.4072 0.727106 4.47777
C 4.55738 0.394455 5.84797
C 4.2701 0.610844 6.95435
C 4.45902 0.714232 8.35181
C 4.304 0.816305 9.13737
C 4.58114 0.790145 10.724
C 4.61944 0.451618 11.8506
C 4.26055 0.562255 13.0629
C 4.48936 0.720681 14.4814
C 4.40958 2.12412 0.50075
C 4.6125 2.04201 1.78978
C 4.50728 2.12261 3.17055
C 4.36465 1.92682 4.23548
C 4.42167 1.72739 5.80575
C 4.29178 1.68375 7.01656
C 4.58608 1.99116 7.92827
C 4.44733 2.00596 9.48198
C 4.34595 1.65367 10.8146
C 4.17533 2.09117 12.0196
C 4.36732 1.86454 13.327
C 4.38464 1.83695 14.3928
C 4.42089 2.88121 0.797573
C 4.30413 3.09267 2.02113
C 4.31175 3.07954 3.10351
C 4.25994 3.27812 4.42388
C 4.39421 2.93593 5.40187
C 4.15622 3.0548 7.07366
C 4.18056 3.1778 8.00388
C 4.19539 2.99306 9.42272
C 4.35158 3.05357 10.5334
C 4.22785 3.00934 11.9493
C 4.19185 3.36589 13.2547
C 4.53629 2.98502 14.2951
C 4.27014 4.44842 0.601098
C 4.16199 4.31086 1.90131
C 4.49335 4.51143 3.17429
C 4.27776 4.51135 4.46771
C 4.5827 4.17143 5.65368
C 4.47299 4.34882 6.85959
C 4.44224 4.47578 8.01269
C 4.29535 4.61565 9.55568
C 4.528 4.29056 10.5081
C 4.4094 4.56958 11.6963
C 4.30031 4.12865 13.1466
C 4.47385 4.19696 14.5074
C 4.46866 5.72319 0.418409
C 4.20435 5.58987 1.99317
C 4.38389 5.56954 3.05132
C 4.58023 5.40537 4.4885
C 4.39007 5.45099 5.51048
C 4.61252 5.5434 6.8493
C 4.42803 5.44417 7.9206
C 4.44319 5.77341 9.20962
C 4.26187 5.78056 10.5842
C 4.20536 5.45615 11.99
C 4.30053 5.47622 13.0821
C 4.21692 5.75837 14.4881
C 4.20419 6.63658 0.538839
C 4.26076 6.89478 1.73538
C 4.3256 7.06857 2.93437
C 4.47713 6.79719 4.5749
C 4.54227 6.71513 5.61575
C 4.3516 7.00979 6.80414
C 4.42809 6.69031 8.11604
C 4.26641 6.74153 9.58998
C 4.49659 6.89283 10.8248
C 4.39154 6.88529 11.8262
C 4.37607 6.91096 12.9376
C 4.34056 7.01383 14.2172
C 4.53318 8.22232 0.752251
C 4.58434 7.91899 1.97697
C 4.24786 8.36348 3.19265
C 4.3144 8.17967 4.18104
C 4.43173 8.05559 5.56334
C 4.49986 8.06683 6.67445
C 4.24451 7.99355 7.9209
C 4.50036 7.98021 9.32286
C 4.48829 8.21997 10.8322
C 4.5015 8.13082 12.1089
C 4.34175 8.32188 13.0995
C 4.17913 8.20175 14.2661
C 4.31327 9.39852 0.871974
C 4.2601 9.30997 1.93876
C 4.40576 9.3114 3.11895
C 4.21368 9.60194 4.48238
C 4.53118 9.31154 5.59156
C 4.40747 9.136 6.92383
C 4.54918 9.35364 8.06182
C 4.5135 9.12703 9.22187
C 4.20278 9.38602 10.852
C 4.50138 9.4485 11.7579
C 4.27672 9.50093 13.2005
C 4.20343 9.25362 14.2646
C 4.22891 10.8092 0.667797
C 4.15638 10.7934 1.6711
C 4.36172 10.4079 3.0139
C 4.55075 10.4863 4.30104
C 4.2878 10.5958 5.73088
C 4.46302 10.3961 7.02597
C 4.14757 10.6466 8.36061
C 4.30871 10.4398 9.43137
C 4.21478 10.7662 10.5749
C 4.29153 10.8177 11.8999
C 4.62382 10.5465 12.9172
C 4.49414 10.4573 14.5924
C 4.4216 12.0965 0.634984
C 4.1781 11.6344 1.78607
C 4.2173 11.8795 3.10066
C 4.23915 12.1111 4.58952
C 4.36223 11.7528 5.52361
C 4.28195 12.0593 7.08456
C 4.45247 11.9611 7.88976
C 4.20013 11.7763 9.20645
C 4.59087 12.054 10.745
C 4.55554 11.7639 11.6581
C 4.31669 11.7834 13.3191
C 4.38377 11.7398 14.5153
C 4.39971 12.9486 0.439209
C 4.28538 13.3382 2.09005
C 4.22528 13.2206 2.94898
C 4.48103 13.1286 4.49523
C 4.57503 13.0089 5.55787
C 4.54972 13.0972 6.71146
C 4.19125 13.319 7.88145
C 4.57164 13.0098 9.54217
C 4.51283 13.1603 10.777
C 4.16622 13.1842 11.6629
C 4.13345 12.9486 12.9534
C 4.52646 13.2619 14.54
C 4.19781 14.3815 0.834957
C 4.62049 14.3016 1.96284
C 4.1313 14.4996 3.25997
C 4.2981 14.3801 4.61731
C 4.32738 14.5412 5.78086
C 4.3903 14.4969 7.03464
C 4.50544 14.1525 8.06988
C 4.54195 14.3505 9.52579
C 4.17229 14.3596 10.6857
C 4.4159 14.364 11.6881
C 4.18643 14.1266 13.074
C 4.50552 14.5344 14.5525
C 5.75688 0.578368 0.388596
C 5.38894 0.636315 2.04218
C 5.49439 0.534599 3.24945
C 5.727 0.434885 4.6178
C 5.81604 0.858445 5.63582
C 5.50252 0.629575 6.77195
C 5.63499 0.533818 8.13108
C 5.87496 0.683955 9.23292
C 5.69187 0.444302 10.6262
C 5.43572 0.476522 11.9071
C 5.54025 0.796367 13.2921
C 5.4676 0.627834 14.5114
C 5.87301 1.68703 0.397834
C 5.64825 1.67329 1.65595
C 5.61591 1.65482 3.00437
C 5.62383 1.62707 4.39473
C 5.65104 2.04239 5.37979
C 5.84908 2.02663 6.82469
C 5.56302 1.65083 8.05284
C 5.77754 2.03737 9.34832
C 5.74697 1.81639 10.5825
C 5.63238 1.87959 12.0648
C 5.7394 1.67959 12.9243
C 5.38967 1.65306 14.3071
C 5.6856 3.09335 0.605829
C 5.42572 3.35512 2.03872
C 5.84963 3.01787 3.02725
C 5.72657 3.22091 4.26696
C 5.84349 3.22339 5.83644
C 5.71565 3.11345 6.68258
C 5.63502 3.05291 7.94065
C 5.77576 2.88328 9.28633
C 5.76938 3.20199 10.668
C 5.60949 2.95019 11.8741
C 5.59084 2.98843 13.3046
C 5.83727 3.25801 14.3298
C 5.45906 4.42177 0.742659
C 5.61425 4.21682 1.82628
C 5.78164 4.59691 3.319
C 5.74119 4.1292 4.26007
C 5.46781 4.52663 5.54587
C 5.67511 4.13423 6.82373
C 5.86218 4.22017 8.35652
C 5.82765 4.30738 9.32593
C 5.38598 4.1288 10.785
C 5.42761 4.30712 12.0533
C 5.38206 4.30449 13.129
C 5.53906 4.45124 14.3153
C 5.51923 5.52273 0.779151
C 5.43441 5.85716 1.72067
C 5.80894 5.58654 3.2605
C 5.54921 5.74025 4.29836
C 5.59411 5.39091 5.74105
C 5.65341 5.55773 6.831
C 5.55506 5.64185 8.3394
C 5.53652 5.48484 9.25225
C 5.61464 5.51619 10.8697
C 5.50584 5.87141 11.8074
C 5.73292 5.41357 13.0865
C 5.79629 5.57151 14.3734
C 5.45542 6.68868 0.691267
C 5.37608 6.85176 1.7302
C 5.43161 7.06006 2.93292
C 5.84393 6.88478 4.2149
C 5.82124 7.03077 5.72
C 5.72945 6.92539 6.78477
C 5.66897 6.87311 8.29966
C 5.60773 6.69159 9.37696
C 5.4948 7.07048 10.4833
C 5.58842 6.65772 12.0493
C 5.53542 6.78407 13.3252
C 5.48909 6.65908 14.3987
C 5.65864 8.03006 0.483233
C 5.44601 8.32569 1.81983
C 5.42732 8.13454 2.88881
C 5.40234 8.31709 4.37221
C 5.79432 8.33728 5.46946
C 5.40202 8.02585 7.00171
C 5.7815 8.34407 7.99474
C 5.80377 8.17229 9.16223
C 5.58638 8.07302 10.4854
C 5.56206 8.36754 11.7016
C 5.82435 8.16086 13.3166
C 5.48388 8.2895 14.6019
C 5.53297 9.14565 0.871341
C 5.87418 9.29741 1.88437
C 5.54758 9.59449 3.15016
C 5.48887 9.45582 4.17699
C 5.7213 9.35726 5.51375
C 5.38562 9.6218 6.81027
C 5.65224 9.23677 8.33453
C 5.76194 9.46203 9.12738
C 5.4515 9.37405 10.6818
C 5.79352 9.61677 11.7589
C 5.81182 9.19896 12.9993
C 5.68928 9.28846 14.3206
C 5.86929 10.8332 0.449765
C 5.44956 10.5328 1.73868
C 5.47294 10.5209 2.93064
C 5.43334 10.4535 4.17921
C 5.44048 10.8568 5.62905
C 5.68612 10.4056 6.85376
C 5.61717 10.5201 8.31334
C 5.48154 10.4855 9.6191
C 5.63854 10.685 10.5017
C 5.65419 10.7671 11.8494
C 5.57324 10.7292 13.018
C 5.58484 10.7234 14.2454
C 5.71087 11.6645 0.833813
C 5.64066 12.0242 1.9945
C 5.59343 11.7959 3.16797
C 5.76804 11.9149 4.46792
C 5.82191 11.7689 5.40766
C 5.83536 11.868 6.77676
C 5.45235 11.6959 8.19142
C 5.37506 11.6964 9.39859
C 5.56536 11.9709 10.6485
C 5.8075 12.086 11.7555
C 5.59964 11.7029 13.1661
C 5.54188 11.8867 14.2185
C 5.76495 13.2993 0.849761
C 5.68356 13.3351 1.69232
C 5.73879 13.035 3.18213
C 5.79198 13.0837 4.16883
C 5.49488 13.1687 5.73496
C 5.70607 13.1486 6.79575
C 5.69653 13.316 7.99222
C 5.52233 13.0849 9.53463
C 5.47822 13.2683 10.6516
C 5.67495 13.2186 11.8819
C 5.57846 12.8819 13.1674
C 5.37618 13.2787 14.2005
C 5.72839 14.5652 0.436114
C 5.50982 14.5876 1.87892
C 5.48282 14.2429 3.32664
C 5.55608 14.5391 4.51632
C 5.84005 14.2038 5.80704
C 5.5904 14.2797 7.09635
C 5.79706 14.1728 7.91956
C 5.78571 14.4912 9.55154
C 5.7606 14.3462 10.5914
C 5.39657 14.1931 11.8105
C 5.69914 14.4539 13.0126
C 5.86541 14.409 14.1382
C 6.76688 0.386173 0.663784
C 6.71961 0.538506 1.67362
C 6.77781 0.668737 3.20887
C 6.96375 0.817721 4.43719
C 7.10106 0.451623 5.68487
C 7.06753 0.52014 6.99356
C 6.92952 0.487883 8.09617
C 6.86996 0.480979 9.31774
C 6.93711 0.530129 10.6353
C 7.12419 0.806917 11.8486
C 6.78105 0.536243 12.8798
C 6.87809 0.58768 14.1338
C 6.74187 1.93696 0.483887
C 6.68398 1.85526 1.63502
C 7.05641 1.77093 2.97024
C 6.76455 2.06647 4.44888
C 6.9927 2.04026 5.67481
C 6.99159 1.89544 6.89981
C 6.88768 2.01696 7.99799
C 6.66642 1.75139 9.40207
C 6.90442 1.88785 10.5849
C 6.62591 1.99608 11.9194
C 7.04505 1.9879 13.1225
C 7.09446 1.81578 14.5753
C 6.91762 2.93894 0.557215
C 7.11274 3.28635 1.66494
C 6.91777 2.91111 3.31912
C 6.9551 3.31407 4.58159
C 7.08867 3.22335 5.56929
C 7.06588 3.30196 7.06732
C 6.77403 3.06398 8.10385
C 6.86678 2.90993 9.22132
C 6.95399 3.2495 10.5293
C 7.08393 3.11399 11.8963
C 6.94264 2.90837 13.2108
C 6.67773 3.07405 14.5252
C 6.92404 4.57134 0.540968
C 7.04201 4.27224 1.86264
C 7.06669 4.54425 3.21604
C 6.95824 4.35554 4.2647
C 7.10344 4.34367 5.49713
C 6.69108 4.15419 6.64455
C 6.7371 4.14984 8.32271
C 6.76203 4.13092 9.61934
C 6.98509 4.19371 10.6177
C 6.91342 4.60575 12.0469
C 6.86318 4.29855 13.2961
C 6.67002 4.2741 14.5973
C 6.73651 5.47706 0.730713
C 7.098 5.66073 1.95226
C 6.9058 5.74489 3.14283
C 7.11548 5.41458 4.37714
C 6.78432 5.58549 5.54445
C 7.06083 5.45333 7.11901
C 6.9795 5.38473 8.33066
C 6.95174 5.41916 9.37545
C 7.00463 5.78334 10.8517
C 7.09524 5.77641 12.0606
C 7.12189 5.6209 13.208
C 6.72725 5.38139 14.5285
C 6.9565 6.65317 0.828097
C 6.83245 6.73807 2.04228
C 6.87727 7.06564 3.23266
C 6.82322 6.67576 4.32451
C 6.86067 7.08524 5.67934
C 6.70894 6.98602 6.76498
C 6.83287 6.83981 8.2597
C 6.7139 6.69915 9.3671
C 7.01641 7.02505 10.565
C 7.07089 6.63533 11.8165
C 6.85796 6.91267 13.1629
C 7.06205 6.65165 14.5146
C 6.64044 7.91163 0.565526
C 6.79946 8.07552 1.78843
C 6.81144 7.87578 3.06241
C 6.90341 8.07608 4.22134
C 6.82174 7.94709 5.41219
C 6.63633 8.28095 6.85058
C 6.97506 7.90369 7.9903
C 7.02752 8.06967 9.36167
C 6.82372 8.29567 10.5963
C 7.09469 7.9895 12.085
C 7.00128 8.07731 13.047
C 7.03445 7.94003 14.6147
C 6.7933 9.17307 0.743413
C 7.03528 9.13197 1.6882
C 6.89228 9.31133 2.96397
C 7.0246 9.14651 4.18916
C 6.90612 9.40962 5.48233
C 6.94688 9.4689 7.11971
C 6.7301 9.48253 8.35087
C 7.03429 9.52624 9.21584
C 6.83243 9.32619 10.7873
C 6.75818 9.45582 11.7749
C 7.04865 9.33522 13.1216
C 6.68908 9.53486 14.1738
C 7.12382 10.6073 0.571237
C 6.78067 10.7929 2.09549
C 7.0776 10.742 2.87724
C 6.77329 10.6441 4.44671
C 7.02426 10.7373 5.62224
C 6.97567 10.5425 6.90679
C 6.65404 10.4921 8.18727
C 6.89552 10.4729 9.16615
C 6.65273 10.3893 10.5456
C 6.99143 10.5149 11.7735
C 6.73822 10.7658 13.2371
C 7.02794 10.6708 14.3061
C 6.71192 11.9872 0.859331
C 6.77114 11.8252 1.76629
C 6.86778 12.102 3.25398
C 6.63015 11.6395 4.49691
C 6.74554 12.1089 5.55637
C 6.84597 11.9212 6.78926
C 6.77646 11.67 8.31929
C 6.83023 11.9436 9.53078
C 7.09438 12.0095 10.5108
C 7.11132 11.6887 11.7915
C 6.72974 12.0547 12.9994
C 6.95115 11.7433 14.1549
C 6.76552 13.043 0.573486
C 7.07447 13.1126 1.63134
C 6.70011 13.3128 3.01367
C 6.77746 13.2644 4.20727
C 6.86362 12.9251 5.4237
C 7.0539 12.9051 6.90665
C 6.86776 13.0158 7.98252
C 6.72573 13.3437 9.21384
C 6.74422 13.0339 10.583
C 6.82921 12.9705 11.7658
C 6.98649 12.8881 13.257
C 6.85897 13.157 14.4734
C 6.91494 14.1985 0.769042
C 6.79254 14.5234 2.00527
C 6.86489 14.5328 3.01027
C 7.05329 14.3273 4.1945
C 6.77294 14.5065 5.47559
C 6.7749 14.5007 6.86595
C 6.73481 14.2568 8.02304
C 6.77105 14.2092 9.52842
C 6.9248 14.4362 10.6471
C 6.74776 14.3966 11.7215
C 6.8307 14.3728 13.2124
C 7.0593 14.3869 14.4942
C 8.23344 0.627056 0.682973
C 7.98176 0.695887 1.77716
C 8.16552 0.562145 3.22379
C 8.02952 0.437453 4.26817
C 8.14945 0.578154 5.79218
C 8.3553 0.845028 6.88166
C 8.09686 0.595542 8.02514
C 8.23912 0.574697 9.4301
C 8.14037 0.530654 10.4542
C 8.21886 0.61827 11.7609
C 8.04312 0.517101 13.1708
C 8.12892 0.524056 14.3155
C 8.11108 1.93363 0.43971
C 7.96228 1.96813 1.64203
C 8.0198 1.73726 3.20211
C 8.15121 1.90347 4.33323
C 8.10891 2.02603 5.52729
C 8.36328 1.72766 7.03795
C 8.32497 1.75199 8.26104
C 8.0304 1.90249 9.34168
C 8.07557 2.11442 10.5596
C 7.96149 1.74733 11.6576
C 8.02861 1.81014 12.954
C 7.88976 1.65043 14.4456
C 7.98485 3.18321 0.465609
C 8.24465 3.04871 1.63352
C 8.03624 3.29945 3.10347
C 8.26542 3.08834 4.18958
C 8.25716 3.28863 5.81447
C 8.05188 3.15429 7.10657
C 8.09537 3.12517 7.9244
C 8.21202 3.14819 9.61738
C 8.22219 3.11266 10.705
C 8.147 3.30728 12.0086
C 8.25372 3.01785 13.3309
C 7.93 3.25041 14.175
C 8.20925 4.4296 0.839849
C 8.09139 4.41135 1.74802
C 7.94416 4.54175 3.25236
C 8.12079 4.18182 4.58123
C 8.16495 4.36224 5.64496
C 8.03907 4.60824 6.89758
C 8.08419 4.56505 8.32355
C 8.14621 4.29863 9.40746
C 8.15519 4.30869 10.6204
C 8.28192 4.23961 11.7976
C 8.00777 4.16194 13.1621
C 8.07517 4.43398 14.1529
C 8.11496 5.45907 0.416367
C 8.12738 5.66958 1.68007
C 7.88437 5.80362 3.10878
C 8.03857 5.45211 4.61893
C 7.90875 5.52798 5.52111
C 8.01075 5.48486 7.08953
C 8.16985 5.44975 8.16779
C 8.34355 5.80807 9.17157
C 8.06846 5.85253 10.7095
C 8.12657 5.56036 11.9095
C 8.32323 5.84111 13.3562
C 8.22322 5.85124 14.336
C 7.96441 6.90939 0.559573
C 7.99786 7.0803 1.85396
C 8.05344 6.71176 3.03072
C 8.01374 6.88346 4.6058
C 8.21239 6.65364 5.75914
C 8.18851 6.78145 7.11972
C 8.12648 6.83109 8.07062
C 8.10568 6.67103 9.23794
C 8.02845 6.65129 10.687
C 7.97145 6.67043 11.6984
C 8.08996 6.98927 13.0948
C 8.21634 7.04852 14.1645
C 7.97186 8.3579 0.437646
C 8.27087 8.30651 1.9449
C 7.9562 8.18131 3.03454
C 8.25052 8.2041 4.36618
C 8.37023 8.27054 5.67426
C 8.02566 8.08609 6.86387
C 8.09214 8.27208 8.04604
C 8.12268 8.21177 9.27797
C 7.90419 8.03351 10.8748
C 8.29453 7.92648 11.7779
C 7.89179 8.12298 13.1387
C 8.01174 8.12268 14.3011
C 8.33373 9.4211 0.423721
C 8.23315 9.60816 2.09176
C 8.20155 9.45045 3.23701
C 8.2318 9.28683 4.58381
C 8.09548 9.22232 5.51278
C 8.03554 9.39705 6.97606
C 8.20299 9.16832 7.97942
C 8.30716 9.50316 9.32665
C 8.0879 9.30047 10.4195
C 8.25799 9.48609 12.0036
C 8.10822 9.34954 13.2108
C 8.16988 9.60321 14.4538
C 8.30912 10.6397 0.638193
C 8.35243 10.5966 1.79343
C 8.21489 10.8485 2.95859
C 8.27605 10.7666 4.36769
C 8.27743 10.4556 5.67901
C 8.32131 10.503 6.6606
C 8.23482 10.8372 8.02786
C 7.91562 10.5573 9.51306
C 7.98779 10.4638 10.4546
C 7.98992 10.7631 11.8425
C 8.16524 10.4221 13.363
C 8.25731 10.8645 14.294
C 8.06498 12.1102 0.836569
C 7.9608 11.7403 1.93696
C 8.05702 11.7731 2.98139
C 8.01185 11.7335 4.22556
C 8.05513 12.0765 5.66209
C 7.96929 11.9361 6.96684
C 8.215 12.0334 8.19096
C 8.16842 12.1075 9.44881
C 8.13383 11.7403 10.4903
C 8.3563 11.8022 11.8865
C 8.16828 11.7484 13.066
C 7.88815 11.643 14.4128
C 8.16032 13.3229 0.426553
C 8.33372 13.1167 1.70955
C 7.93199 13.2623 3.03968
C 8.13948 12.9991 4.61099
C 8.35791 13.062 5.60363
C 8.00848 13.3335 6.67676
C 8.27122 13.1441 7.92917
C 8.24294 13.2883 9.5435
C 8.07581 12.9601 10.4284
C 8.17166 13.3445 11.9126
C 8.1078 13.0959 13.3461
C 8.19014 12.8765 14.3765
C 8.06506 14.4859 0.4832
C 7.88654 14.5311 1.99557
C 8.09331 14.2522 2.98189
C 7.89442 14.5834 4.52899
C 8.3053 14.2495 5.73039
C 7.92877 14.3712 6.77
C 7.89832 14.1448 8.18605
C 8.14427 14.1715 9.4686
C 8.29565 14.5332 10.7674
C 7.89881 14.3504 12.0454
C 8.10037 14.4888 13.3563
C 8.24415 14.4315 14.5184
C 9.25848 0.714085 0.383569
C 9.13983 0.66562 2.08134
C 9.38003 0.646237 3.05167
C 9.49879 0.687276 4.54592
C 9.48461 0.383622 5.78231
C 9.32729 0.784259 7.04782
C 9.50816 0.562488 7.9816
C 9.27526 0.861557 9.189
C 9.29303 0.428301 10.7105
C 9.46488 0.795375 11.8697
C 9.3325 0.844266 13.329
C 9.46611 0.452098 14.4193
C 9.12977 1.78621 0.856243
C 9.36853 2.08602 1.98137
C 9.58092 1.84844 3.15202
C 9.45555 1.74641 4.24559
C 9.38392 1.79622 5.55762
C 9.35579 1.92963 6.97624
C 9.42775 2.02391 8.28436
C 9.17906 1.66626 9.61858
C 9.2613 1.88502 10.5868
C 9.60427 1.70824 12.0696
C 9.13145 2.03589 13.211
C 9.31486 1.62835 14.4959
C 9.43089 3.03994 0.469654
C 9.47654 3.17365 2.0529
C 9.26913 3.34224 3.35374
C 9.35402 3.04218 4.40669
C 9.42349 3.1195 5.74963
C 9.59565 3.04694 6.84878
C 9.24128 3.18083 7.88291
C 9.56767 3.30252 9.4641
C 9.34282 3.24991 10.4073
C 9.2806 2.96127 12.0985
C 9.61006 3.21529 13.1956
C 9.46253 3.23791 14.5095
C 9.13729 4.16452 0.661265
C 9.37704 4.19366 1.63504
C 9.42415 4.40275 2.97531
C 9.58763 4.46704 4.29364
C 9.5016 4.19615 5.61468
C 9.37404 4.19931 6.97659
C 9.37188 4.474 8.02656
C 9.45425 4.38308 9.6206
C 9.14731 4.13748 10.7071
C 9.35874 4.53609 11.8042
C 9.31182 4.55384 13.3228
C 9.6117 4.58556 14.2684
C 9.61764 5.71933 0.567255
C 9.35158 5.4339 2.07064
C 9.52248 5.74882 3.18827
C 9.30589 5.55371 4.16317
C 9.59425 5.53064 5.79832
C 9.39381 5.73828 6.74353
C 9.23359 5.44491 8.27722
C 9.28808 5.83613 9.40648
C 9.41721 5.50658 10.7648
C 9.20869 5.52967 11.6627
C 9.32981 5.67789 12.9794
C 9.23805 5.42029 14.2547
C 9.38907 6.88324 0.613663
C 9.32668 6.74686 1.74182
C 9.44778 7.04131 3.2217
C 9.60644 6.65112 4.58589
C 9.25484 6.82981 5.56252
C 9.29666 6.7378 6.93802
C 9.4992 6.82119 8.17207
C 9.5583 6.65801 9.40623
C 9.22944 6.99074 10.4466
C 9.3615 7.05521 12.1054
C 9.50839 6.77973 13.3414
C 9.52452 6.84465 14.3646
C 9.12781 8.15005 0.648136
C 9.22843 8.19983 2.06555
C 9.36771 8.07949 3.15654
C 9.51642 7.92315 4.40454
C 9.3904 7.92178 5.62092
C 9.22264 7.88794 7.06998
C 9.38794 8.09532 8.27441
C 9.55645 8.26888 9.52357
C 9.45398 8.09228 10.6982
C 9.48422 8.25014 11.6681
C 9.4905 7.87612 13.1764
C 9.47153 7.96315 14.2354
C 9.38796 9.13947 0.556411
C 9.60468 9.15476 1.81381
C 9.42552 9.49066 2.98917
C 9.49998 9.46529 4.4019
C 9.49514 9.54317 5.55184
C 9.30035 9.23007 7.04947
C 9.22044 9.62499 8.28849
C 9.60629 9.16377 9.20644
C 9.41596 9.25015 10.8438
C 9.45442 9.18253 12.0297
C 9.39304 9.49642 12.8841
C 9.46489 9.16009 14.3191
C 9.23971 10.7792 0.598397
C 9.25091 10.485 2.03944
C 9.57719 10.83 3.34619
C 9.45429 10.7951 4.20479
C 9.16811 10.4142 5.68854
C 9.28787 10.7196 6.95227
C 9.47585 10.5739 8.18827
C 9.26349 10.4477 9.17133
C 9.35716 10.7641 10.5869
C 9.5296 10.4887 11.6552
C 9.53483 10.8224 13.339
C 9.53332 10.5417 14.2781
C 9.26641 11.8048 0.559919
C 9.55441 11.6618 1.93241
C 9.23864 11.6469 3.33972
C 9.12892 12.0336 4.53487
C 9.28309 11.7067 5.41362
C 9.16358 12.039 6.90272
C 9.30877 11.8177 8.01278
C 9.287 11.7973 9.14085
C 9.53259 11.9966 10.5963
C 9.28394 11.9326 11.8361
C 9.22343 11.9401 13.2712
C 9.15206 11.8992 14.4208
C 9.61761 13.0978 0.638814
C 9.54348 13.2524 1.8975
C 9.45546 12.8948 3.23416
C 9.56639 13.3419 4.35292
C 9.26685 13.0164 5.52945
C 9.39056 13.1544 7.05272
C 9.33209 12.9988 8.06646
C 9.42576 13.3172 9.49804
C 9.25514 13.1629 10.7909
C 9.21912 13.3048 11.8698
C 9.22102 13.132 13.0678
C 9.32761 13.2174 14.5273
C 9.53448 14.2792 0.858253
C 9.15096 14.5016 2.04296
C 9.33022 14.2683 3.07125
C 9.52395 14.3293 4.20912
C 9.48763 14.2952 5.61407
C 9.13166 14.5644 7.03583
C 9.48558 14.4576 7.92046
C 9.61797 14.4492 9.23498
C 9.6197 14.5852 10.4815
C 9.17931 14.4805 12.0089
C 9.1391 14.1837 13.1988
C 9.16614 14.5825 14.4561
C 10.7322 0.397849 0.396168
C 10.6458 0.715745 2.02614
C 10.8726 0.474511 3.35613
C 10.7747 0.716973 4.16791
C 10.4877 0.432206 5.83835
C 10.4174 0.578903 6.62604
C 10.3999 0.408281 8.2351
C 10.6489 0.801535 9.39618
C 10.5795 0.519362 10.661
C 10.6525 0.486683 11.6804
C 10.5412 0.538756 13.1226
C 10.5504 0.780596 14.469
C 10.4592 1.83141 0.517637
C 10.6701 1.62999 1.9327
C 10.4686 2.02267 2.94009
C 10.7737 1.92086 4.5642
C 10.5164 1.95415 5.84926
C 10.8175 1.93766 6.99414
C 10.5336 1.91463 8.21251
C 10.8319 1.69747 9.57757
C 10.687 1.91422 10.8055
C 10.7219 1.95467 11.8473
C 10.8506 1.75403 12.9968
C 10.4039 1.65798 14.3585
C 10.5704 3.21348 0.734439
C 10.4619 2.88447 1.78204
C 10.7689 3.32936 3.22847
C 10.6486 3.27869 4.41682
C 10.4178 3.24445 5.63951
C 10.4311 2.95767 6.98806
C 10.7974 3.15853 8.24181
C 10.414 3.18594 9.60704
C 10.5838 2.94283 10.4102
C 10.5896 2.96657 12.0873
C 10.7325 3.34746 13.0654
C 10.5879 2.95303 14.5787
C 10.8289 4.57293 0.702027
C 10.7119 4.18346 1.72524
C 10.6391 4.4017 2.90021
C 10.5291 4.25418 4.17384
C 10.7586 4.53543 5.4543
C 10.6865 4.34936 6.87276
C 10.5021 4.54464 8.30927
C 10.6394 4.49196 9.56454
C 10.7194 4.38268 10.6695
C 10.3754 4.25973 11.9584
C 10.7103 4.23949 13.107
C 10.8717 4.24382 14.1908
C 10.4799 5.6883 0.531645
C 10.6043 5.4051 1.97712
C 10.4182 5.6083 2.93898
C 10.7456 5.74274 4.28004
C 10.6527 5.57906 5.59051
C 10.4402 5.53581 6.86226
C 10.5065 5.72988 7.91269
C 10.8024 5.46758 9.55623
C 10.479 5.78351 10.6272
C 10.3937 5.45841 11.9689
C 10.8181 5.78871 13.0696
C 10.7535 5.74685 14.2681
C 10.473 7.00207 0.822341
C 10.8381 6.75752 1.82729
C 10.8266 7.06187 3.34976
C 10.7357 7.10066 4.50134
C 10.5141 6.88371 5.57447
C 10.4209 6.85728 7.06571
C 10.8108 7.00854 7.97033
C 10.6114 7.01061 9.13639
C 10.381 6.73631 10.7313
C 10.5369 6.73681 11.8213
C 10.6374 6.74684 13.1369
C 10.7618 6.70654 14.5002
C 10.5631 8.27358 0.791975
C 10.4716 7.96886 2.08765
C 10.6522 8.1762 3.16312
C 10.8521 8.00584 4.22376
C 10.677 8.28372 5.68134
C 10.5837 8.12557 7.02396
C 10.6373 8.11452 7.91768
C 10.7479 8.28398 9.38559
C 10.5797 8.04941 10.6995
C 10.5534 8.01311 11.8112
C 10.5608 8.28533 13.2075
C 10.7676 8.0475 14.2498
C 10.6824 9.54385 0.421376
C 10.8232 9.32714 1.95709
C 10.3907 9.3426 3.01392
C 10.7261 9.1574 4.17227
C 10.3792 9.58131 5.56786
C 10.8527 9.54918 6.88914
C 10.783 9.31704 8.04335
C 10.8704 9.51113 9.30392
C 10.5218 9.12953 10.4328
C 10.7651 9.60909 11.6752
C 10.5369 9.23213 12.9885
C 10.6838 9.15173 14.4243
C 10.3976 10.8315 0.837839
C 10.8136 10.5369 1.79401
C 10.4263 10.4995 2.98968
C 10.7321 10.4889 4.51624
C 10.4423 10.831 5.71891
C 10.5114 10.4321 6.86151
C 10.8168 10.3998 8.29866
C 10.8733 10.8042 9.36516
C 10.6736 10.6555 10.5572
C 10.5608 10.8477 11.9452
C 10.6976 10.4477 13.1875
C 10.5061 10.7865 14.402
C 10.4949 11.7642 0.602154
C 10.6586 11.9674 1.83821
C 10.8688 11.8976 3.15401
C 10.7415 11.7875 4.61734
C 10.6334 11.8145 5.87196
C 10.7923 12.1133 6.94264
C 10.4226 11.8992 7.9848
C 10.712 11.7969 9.1634
C 10.7779 11.9487 10.7339
C 10.3919 11.9942 12.0865
C 10.7428 11.7663 13.3213
C 10.8059 11.9076 14.5872
C 10.5682 12.9161 0.804348
C 10.4268 13.2706 1.87499
C 10.462 12.9888 3.06625
C 10.7247 13.0322 4.19781
C 10.5415 13.1504 5.40928
C 10.575 12.8896 7.10066
C 10.7365 13.3157 8.13943
C 10.6618 13.0934 9.5391
C 10.6897 13.2016 10.8315
C 10.6946 13.0667 11.9763
C 10.6225 12.8842 13.2032
C 10.7143 13.0444 14.1526
C 10.6903 14.2548 0.569661
C 10.546 14.1955 1.9946
C 10.6871 14.5465 3.04609
C 10.4425 14.6109 4.31328
C 10.7348 14.418 5.459
C 10.7416 14.595 6.9161
C 10.44 14.4073 8.26339
C 10.5472 14.3185 9.43406
C 10.6938 14.1547 10.8126
C 10.7143 14.366 11.9563
C 10.4866 14.5483 12.9251
C 10.6367 14.3398 14.4521
C 11.6837 0.612949 0.578143
C 11.8477 0.772806 2.05838
C 11.8845 0.863773 3.17872
C 11.7635 0.629767 4.48831
C 11.7463 0.497251 5.55322
C 12.0463 0.636485 6.9001
C 11.7408 0.652078 8.22487
C 11.9252 0.666161 9.16508
C 11.7004 0.630482 10.7672
C 11.7886 0.809081 11.7326
C 11.9097 0.851779 13.1022
C 11.8898 0.792123 14.209
C 11.8875 1.96016 0.483747
C 11.8415 2.06912 1.93967
C 11.7373 1.9057 3.10993
C 12.1227 1.64125 4.31742
C 11.6702 1.83446 5.77698
C 11.7396 1.82447 7.1186
C 12.001 1.82171 7.90006
C 11.8285 2.10233 9.17997
C 12.0845 1.82274 10.7202
C 11.9909 2.10524 11.9597
C 11.984 1.7164 12.9728
C 11.9286 1.89371 14.3445
C 12.0988 3.18656 0.740397
C 11.8588 3.10226 1.7113
C 12.0923 3.1845 3.08826
C 11.8065 2.89924 4.4661
C 11.9132 2.92568 5.68688
C 11.882 3.1226 7.11433
C 11.7458 3.22488 7.88692
C 11.9214 3.13882 9.62251
C 11.8368 3.12784 10.3838
C 11.7948 2.89351 11.6464
C 12.1072 2.97767 13.0131
C 12.0621 3.35568 14.3941
C 12.0308 4.43504 0.759496
C 11.8509 4.55659 1.84871
C 12.0735 4.48015 2.87938
C 11.6935 4.55388 4.23547
C 11.7451 4.5772 5.57166
C 11.8516 4.29104 6.70252
C 12.0243 4.40882 8.10487
C 12.1021 4.28159 9.35154
C 12.1129 4.534 10.4528
C 11.9905 4.60532 11.81
C 12.0932 4.56945 13.256
C 11.8584 4.57901 14.5933
C 11.665 5.73335 0.609813
C 12.1228 5.56718 1.65536
C 11.9222 5.58078 3.35171
C 11.7232 5.5904 4.31857
C 11.9049 5.53331 5.64326
C 11.7891 5.62235 6.82645
