400

C 0.524611 0.390208 0.479919
C 0.755741 0.492765 1.90537
C 0.593284 0.582403 3.18955
C 0.491757 0.716249 4.49268
C 0.491427 0.667443 5.46357
C 0.507452 0.498386 6.86907
C 0.462376 0.406503 8.34175
C 0.622547 0.392249 9.52909
C 0.388039 1.76796 0.550304
C 0.703601 1.92243 2.10521
C 0.778106 1.63533 2.9775
C 0.523305 1.68015 4.56094
C 0.748562 2.0857 5.86731
C 0.698611 2.0615 6.8573
C 0.630842 2.06137 7.96244
C 0.476544 1.76699 9.62121
C 0.684911 3.04771 0.535392
C 0.575497 3.13156 2.05645
C 0.7219 3.218 3.18304
C 0.544863 3.26288 4.1817
C 0.864835 3.03261 5.76383
C 0.382011 3.20513 6.67475
C 0.593664 2.96635 8.23449
C 0.864059 2.98223 9.39632
C 0.452317 4.59328 0.71596
C 0.387452 4.40687 2.05492
C 0.598531 4.51191 3.22588
C 0.644598 4.2657 4.40381
C 0.779286 4.45574 5.59634
C 0.469251 4.20698 6.88035
C 0.500765 4.3525 7.96405
C 0.554783 4.2429 9.19633
C 0.663474 5.76133 0.40279
C 0.449411 5.49667 2.01035
C 0.468511 5.5096 3.1048
C 0.69433 5.85736 4.6226
C 0.497 5.82997 5.5066
C 0.648127 5.82456 6.91692
C 0.614911 5.55612 7.8756
C 0.41894 5.86926 9.19282
C 0.687203 6.82806 0.770937
C 0.39504 6.94393 1.95024
C 0.764234 6.98214 3.29843
C 0.428072 7.10476 4.40049
C 0.499316 7.00246 5.81148
C 0.816734 6.84315 7.08038
C 0.388317 6.9437 8.32876
C 0.769267 7.064 9.39969
C 0.65959 7.98562 0.519618
C 0.471526 8.18044 2.12461
C 0.768809 8.11726 2.95617
C 0.550544 8.2465 4.48958
C 0.796721 8.24068 5.85461
C 0.709694 8.0724 6.88184
C 0.512139 8.26394 8.22963
C 0.620007 8.2068 9.13221
C 0.524692 9.49336 0.468876
C 0.649133 9.47462 1.76242
C 0.479723 9.20541 3.3625
C 0.802437 9.56388 4.35137
C 0.523909 9.33289 5.37777
C 0.863766 9.32271 7.08413
C 0.455678 9.57227 8.1641
C 0.695073 9.5839 9.32371
C 1.81667 0.734825 0.455162
C 1.90732 0.799259 1.64601
C 1.77831 0.625958 3.23196
C 2.10855 0.402178 4.41054
C 1.71156 0.646172 5.4711
C 1.83946 0.771651 6.6395
C 1.87768 0.626684 7.92624
C 1.83356 0.688098 9.36907
C 1.64332 2.03283 0.758194
C 1.97311 1.77053 2.04271
C 2.03987 1.80513 3.27847
C 1.69083 2.09185 4.53485
C 2.00538 2.08831 5.75876
C 1.96365 1.79356 6.636
C 1.93057 1.80322 8.17982
C 1.70958 1.72609 9.15089
C 1.72728 2.9553 0.510226
C 1.87258 2.94667 1.666
C 1.71906 3.2933 3.2814
C 2.02236 3.31305 4.38175
C 1.8855 3.03008 5.76467
C 1.7291 3.01527 6.64925
C 1.72079 3.2974 8.08968
C 1.78812 2.9762 9.46141
C 2.08727 4.54031 0.56782
C 1.84783 4.22952 1.75581
C 1.72777 4.41699 2.92983
C 1.66721 4.50919 4.16558
C 1.64197 4.35415 5.72374
C 1.90744 4.12903 6.80053
C 1.70323 4.37404 7.99848
C 1.99429 4.21792 9.4021
C 1.9195 5.5343 0.737923
C 1.76705 5.75628 1.7803
C 1.69238 5.86151 3.15684
C 2.03802 5.48801 4.425
C 1.73994 5.73325 5.5278
C 1.77156 5.64076 6.80567
C 1.65199 5.49929 8.32356
C 2.02762 5.63387 9.39862
C 1.87023 6.73699 0.554646
C 1.93455 6.71763 2.02392
C 1.71884 6.85357 2.92272
C 1.64882 6.917 4.30044
C 1.79606 6.64281 5.67276
C 2.11787 6.73417 6.97832
C 1.89159 6.76594 8.10275
C 1.85374 7.09975 9.25543
C 1.78508 8.36518 0.861784
C 2.00266 8.17105 1.80652
C 1.87277 8.13263 2.88457
C 1.91142 8.31833 4.18479
C 2.03741 8.25894 5.72013
C 1.70603 8.2815 6.73212
C 2.00555 8.30385 8.03129
C 1.90991 7.91695 9.16653
C 2.06961 9.26102 0.382875
C 1.9865 9.31945 1.72408
C 1.90132 9.27039 2.93606
C 1.84148 9.57513 4.40602
C 1.68499 9.36802 5.87467
C 1.63786 9.23212 7.05536
C 1.66033 9.45356 8.00935
C 1.69765 9.62279 9.46155
C 3.30607 0.425202 0.622088
C 3.17667 0.539874 1.66478
C 3.0373 0.665904 3.10351
C 3.01981 0.647274 4.24219
C 3.00202 0.755415 5.5094
C 3.22948 0.603211 6.66642
C 3.0783 0.773918 7.98792
C 3.2927 0.588495 9.33784
C 3.05353 2.12294 0.740835
C 2.96499 2.0474 1.89915
C 2.96224 1.81544 3.03511
C 3.30274 1.69221 4.26281
C 3.11195 2.02361 5.80244
C 3.32656 1.94259 6.85453
C 3.0961 1.71069 8.07765
C 3.28499 1.84497 9.16585
C 3.02476 2.93746 0.649595
C 2.99776 3.08053 1.92452
C 3.34914 3.21716 3.12838
C 2.93261 3.18044 4.60559
C 3.19775 3.37412 5.66567
C 3.19254 3.28516 6.69468
C 2.99489 2.89006 8.01822
C 2.9914 3.15033 9.55153
C 3.0192 4.12889 0.823009
C 3.06258 4.25405 2.12388
C 3.13148 4.21119 2.95457
C 3.23038 4.47916 4.49996
C 3.30626 4.27671 5.66638
C 3.132 4.52133 6.72692
C 3.26377 4.20334 8.06273
C 3.05283 4.37766 9.58873
C 3.2564 5.59694 0.573794
C 3.0141 5.72798 2.12026
C 3.28867 5.87045 3.36481
C 3.10077 5.40329 4.59715
C 3.2668 5.4269 5.58264
C 3.18556 5.51601 7.07627
C 2.93231 5.65219 8.11516
C 3.16838 5.63062 9.28482
C 2.8893 7.04536 0.835711
C 3.03655 6.82174 1.77099
C 2.95775 6.93958 3.08482
C 3.25522 6.99718 4.37247
C 3.17039 6.78383 5.40734
C 3.33004 6.91282 6.93595
C 3.04343 6.90618 8.18358
C 3.16307 6.69141 9.22959
C 3.20483 7.89576 0.791368
C 3.27667 8.1899 2.10393
C 3.26839 8.16376 3.01177
C 3.01213 8.13447 4.51577
C 3.01896 7.98699 5.58018
C 2.89235 8.0078 7.0993
C 2.88834 8.06739 7.9293
C 3.03439 8.21117 9.20336
C 2.91334 9.49843 0.612687
C 3.17666 9.17949 1.89005
C 3.10203 9.38512 3.18801
C 3.20996 9.35649 4.19479
C 3.36587 9.12946 5.40435
C 3.12126 9.50249 7.04409
C 3.02867 9.36754 8.26144
C 3.21363 9.45245 9.5615
C 4.3726 0.787218 0.519776
C 4.37345 0.536493 1.8322
C 4.59344 0.865432 3.07218
C 4.61 0.822059 4.34056
C 4.5937 0.810376 5.7355
C 4.49691 0.641909 7.06283
C 4.2593 0.541409 8.21769
C 4.15448 0.831348 9.45848
C 4.43103 1.98942 0.757714
C 4.39606 1.8928 2.05985
C 4.57354 1.79948 2.93888
C 4.25908 1.67754 4.60478
C 4.36332 1.63103 5.74
C 4.21298 1.85562 6.65151
C 4.20489 1.83994 7.92455
C 4.44724 2.06513 9.30941
C 4.52833 3.18506 0.599791
C 4.17965 2.9038 1.68577
C 4.55936 3.18505 2.90281
C 4.57083 2.95125 4.14993
C 4.60715 3.31077 5.86039
C 4.5642 3.07966 6.83178
C 4.43511 2.87981 8.20908
C 4.43604 3.0305 9.57246
C 4.61184 4.37801 0.71227
C 4.61719 4.28475 2.03345
C 4.4532 4.18709 2.96089
C 4.61025 4.1664 4.37405
C 4.37339 4.27162 5.55106
C 4.22888 4.61823 6.76343
C 4.29648 4.6085 7.98727
C 4.51157 4.19379 9.2371
C 4.19828 5.54162 0.708971
C 4.17524 5.69854 1.84246
C 4.39988 5.79025 3.00817
C 4.35477 5.67472 4.55053
C 4.47405 5.79744 5.84754
C 4.6183 5.76197 6.88828
C 4.56994 5.48416 8.08619
C 4.53382 5.46768 9.3077
C 4.26794 7.08197 0.628156
C 4.42296 6.91316 1.6541
C 4.22143 6.80032 2.89487
C 4.50867 6.96588 4.24936
C 4.16746 6.76157 5.72316
C 4.61553 7.04616 6.9909
C 4.30122 6.87432 8.24522
C 4.45202 6.87947 9.45902
C 4.44559 8.09456 0.579924
C 4.29102 8.1022 1.62984
C 4.50339 8.00767 3.12505
C 4.23049 8.29043 4.27046
C 4.36828 8.22938 5.42048
C 4.48967 7.88919 7.07635
C 4.51974 8.31596 8.11965
C 4.49279 7.8919 9.17277
C 4.47616 9.53966 0.600263
C 4.61881 9.53301 2.03627
C 4.29834 9.38112 3.00997
C 4.14701 9.53755 4.39627
C 4.36241 9.2867 5.5418
C 4.45192 9.15887 6.90244
C 4.13793 9.44766 8.33385
C 4.48974 9.2815 9.4373
C 5.65575 0.513267 0.727323
C 5.86875 0.382949 1.73025
C 5.79166 0.760675 2.91299
C 5.82422 0.492032 4.5778
C 5.6482 0.58224 5.46063
C 5.50117 0.48569 6.98873
C 5.61278 0.821477 8.30566
C 5.42138 0.389709 9.34603
C 5.80749 1.99764 0.851976
C 5.41533 1.97896 2.07658
C 5.50735 2.04129 3.03095
C 5.4517 1.6604 4.13555
C 5.63535 1.74704 5.46761
C 5.41635 2.08615 6.63541
C 5.84482 1.84566 7.96918
C 5.69954 1.66431 9.28827
C 5.39108 3.1167 0.648673
C 5.49907 3.12829 1.73749
C 5.42516 2.96626 3.13887
C 5.70289 3.18035 4.22472
C 5.43349 2.88229 5.8537
C 5.80671 3.06424 6.73668
C 5.46198 3.19081 8.17305
C 5.65185 3.36447 9.18779
C 5.68516 4.46493 0.580297
C 5.80755 4.50147 2.0333
C 5.62077 4.32083 3.15075
C 5.86947 4.6249 4.50613
C 5.5466 4.17531 5.51251
C 5.53748 4.35523 7.04023
C 5.56605 4.52205 8.01886
C 5.73728 4.38727 9.60509
C 5.70308 5.44271 0.449409
C 5.4672 5.52058 1.86447
C 5.69185 5.73616 3.31299
C 5.73438 5.44694 4.19603
C 5.71121 5.62128 5.54549
C 5.74003 5.50292 7.08185
C 5.73489 5.49817 7.93527
C 5.80934 5.78179 9.60251
C 5.3788 7.02388 0.801638
C 5.37559 7.0634 1.76642
C 5.72725 6.81085 2.94548
C 5.49683 6.72487 4.61379
C 5.54856 6.71319 5.51487
C 5.70894 6.6949 6.88256
C 5.69361 6.97736 7.96744
C 5.49759 7.01498 9.44216
C 5.82327 7.9149 0.549186
C 5.42741 8.28566 1.66597
C 5.45716 8.23542 3.02629
C 5.61386 8.33997 4.30877
C 5.56476 8.18611 5.685
C 5.55351 8.10314 6.9229
C 5.60491 8.02208 8.29779
C 5.67273 8.27286 9.44229
C 5.5781 9.55666 0.853945
C 5.51165 9.23975 1.73079
C 5.81688 9.32297 3.23624
C 5.71268 9.53125 4.54177
C 5.58225 9.38587 5.82956
C 5.62226 9.35316 6.82038
C 5.6461 9.45518 8.22069
C 5.85518 9.52201 9.24426
C 7.00934 0.412524 0.536745
C 7.06516 0.608455 1.79878
C 6.91523 0.782495 3.14966
C 6.7976 0.756736 4.45584
C 7.11581 0.413542 5.64207
C 6.818 0.611855 6.94442
C 7.05485 0.418052 7.95695
C 6.88052 0.839925 9.6186
C 7.02338 1.62517 0.664467
C 6.69191 1.71833 1.74637
C 6.99099 1.83923 2.97007
C 6.90852 1.77067 4.43228
C 7.05196 1.98892 5.7127
C 6.78206 1.8675 6.83821
C 7.01732 1.90483 7.99783
C 6.96845 2.05853 9.46837
C 7.09107 3.12001 0.831948
C 7.05298 2.9094 1.76762
C 6.69977 3.02548 3.01508
C 6.98811 3.10855 4.37951
C 6.69422 3.28964 5.78073
C 6.69399 2.92891 6.76868
C 6.97757 2.96546 8.27238
C 6.95835 2.9739 9.25471
C 6.73959 4.55506 0.388644
C 6.94179 4.42724 1.80295
C 6.95088 4.14611 3.23966
C 6.95486 4.16414 4.381
C 6.66738 4.40206 5.42552
C 6.67062 4.39039 7.02686
C 7.11992 4.30108 8.33412
C 7.05266 4.31121 9.19664
C 6.64702 5.43526 0.593177
C 7.02385 5.41131 1.94148
C 6.75916 5.75839 3.02681
C 6.65935 5.68934 4.22681
C 6.67522 5.425 5.64945
C 6.86046 5.78017 6.74407
C 6.90277 5.39482 7.96038
C 7.04572 5.37869 9.62468
C 6.73697 7.02667 0.791159
C 7.0056 6.91786 1.65849
C 6.97067 6.76556 3.32124
C 7.00691 6.84551 4.26102
C 6.77181 7.11108 5.45293
C 6.91055 6.8517 6.84334
C 6.84561 6.88737 8.03457
C 7.04165 6.80562 9.30717
C 6.83698 8.12925 0.5598
C 7.05804 7.98977 2.11561
C 6.84569 8.06447 3.29255
C 6.89413 8.11393 4.24907
C 6.94981 7.97979 5.6466
C 6.86116 8.06588 6.80193
C 6.82406 7.94051 8.34404
C 6.85597 8.29568 9.48351
C 6.67558 9.15663 0.494398
C 6.84118 9.38612 1.74787
C 6.76669 9.49216 3.17199
C 6.69398 9.39886 4.38624
C 6.77452 9.60847 5.49594
C 6.83231 9.30287 7.09912
C 6.63665 9.47182 8.34205
C 6.90604 9.57877 9.19183
C 8.15646 0.869246 0.665674
C 8.23682 0.460197 2.03179
C 8.30801 0.520707 3.27982
C 8.14631 0.827463 4.17094
C 8.04425 0.541897 5.42113
C 8.24902 0.595769 7.08309
C 7.91032 0.488829 8.00706
C 7.90442 0.389119 9.42686
C 8.22288 1.91207 0.610851
C 8.32118 2.12089 2.01828
C 8.3103 1.7197 3.04852
C 8.19293 2.01307 4.41654
C 8.28689 1.73021 5.55893
C 8.1668 1.8703 6.91427
C 8.1922 1.74294 8.14305
C 8.05199 1.76393 9.56348
