259

C 0.359733 0.267571 0.329088
C 0.518223 0.337896 1.30654
C 0.406824 0.399362 2.18712
C 0.337205 0.491142 3.0807
C 0.336979 0.457675 3.74645
C 0.347967 0.34175 4.71022
C 0.317058 0.278745 5.72006
C 0.426889 1.12611 0.534232
C 0.266084 1.21231 1.23449
C 0.482469 1.31824 2.30072
C 0.533559 1.12137 2.89885
C 0.358837 1.1521 3.98465
C 0.5133 1.43019 4.88044
C 0.479048 1.4136 5.55929
C 0.432577 2.27065 0.317102
C 0.326773 2.0688 1.45454
C 0.469653 2.08986 2.08141
C 0.394627 2.14735 3.12442
C 0.495017 2.20663 3.89694
C 0.37362 2.2374 4.58174
C 0.59303 2.0795 5.66662
C 0.26195 3.05495 0.29126
C 0.407084 2.89121 1.36079
C 0.592497 2.9021 2.15748
C 0.31016 3.14968 3.06237
C 0.265681 3.02186 3.98052
C 0.410421 3.09388 4.78346
C 0.44201 2.92505 5.59118
C 0.534367 3.91251 0.40892
C 0.321772 3.74193 1.28938
C 0.343382 3.84171 2.03249
C 0.380423 3.76656 2.87748
C 0.454954 3.95063 3.70477
C 0.308167 3.76914 4.8071
C 0.321264 3.77801 5.55758
C 0.476112 4.87362 0.598353
C 0.3408 4.85483 1.20452
C 0.44443 4.85113 2.1716
C 0.421653 4.66705 2.82898
C 0.287273 4.88178 3.73222
C 0.471225 4.6821 4.81436
C 0.270885 4.76155 5.62303
C 0.524046 5.64489 0.547493
C 0.293535 5.72898 1.30319
C 0.342388 5.65883 2.27073
C 0.560046 5.54959 3.14083
C 0.266275 5.61854 3.99687
C 0.527497 5.70103 4.73122
C 0.452291 5.47585 5.49917
C 1.18047 0.466586 0.59973
C 1.38433 0.423261 1.16994
C 1.23466 0.511888 2.22142
C 1.40347 0.507895 3.15745
C 1.34379 0.392505 3.86183
C 1.20832 0.523842 4.78603
C 1.28229 0.484661 5.40494
C 1.21693 1.36688 0.321515
C 1.30226 1.35403 1.20852
C 1.1861 1.16943 2.30571
C 1.40739 1.41523 2.9838
C 1.21639 1.25684 3.68761
C 1.44944 1.24986 4.85769
C 1.16961 1.42099 5.59824
C 1.33376 2.2861 0.3934
C 1.24572 2.21817 1.16925
C 1.30788 2.26235 1.98584
C 1.21942 2.14351 3.07335
C 1.44586 1.99007 3.88151
C 1.17364 2.15738 4.60876
C 1.26134 2.24342 5.40994
C 1.28755 3.00115 0.29228
C 1.2573 3.04327 1.28165
C 1.12685 3.10823 2.23419
C 1.35299 2.92836 3.115
C 1.39877 2.95209 3.96238
C 1.15943 3.1487 4.8239
C 1.37511 3.14627 5.66315
C 1.3465 3.8013 0.264683
C 1.32382 3.80792 1.3233
C 1.17229 3.75503 1.98918
C 1.18442 3.74078 2.9213
C 1.28405 3.73486 3.71383
C 1.17879 3.97255 4.82153
C 1.38676 3.98609 5.57606
C 1.29291 4.6492 0.524342
C 1.18567 4.63904 1.13092
C 1.17997 4.8325 2.11864
C 1.22614 4.61225 3.05925
C 1.43127 4.82764 3.81793
C 1.26708 4.61453 4.63256
C 1.18476 4.74308 5.4376
C 1.14323 5.66344 0.284969
C 1.12592 5.55713 1.35342
C 1.30796 5.40276 2.09179
C 1.16793 5.57077 2.91325
C 1.36751 5.46372 3.87573
C 1.31623 5.50923 4.79172
C 1.21169 5.66145 5.50649
C 2.01763 0.59075 0.450406
C 2.25464 0.334633 1.32
C 2.05025 0.502802 2.07621
C 2.07193 0.43938 2.95246
C 1.98994 0.342371 3.9933
C 2.24751 0.434651 4.73048
C 2.13959 0.333935 5.52319
C 2.18369 1.17781 0.530686
C 2.03578 1.27102 1.14701
C 1.98776 1.31452 2.09173
C 2.08873 1.1265 3.03275
C 2.30939 1.18915 3.92799
C 2.15424 1.21093 4.69903
C 2.12828 1.43983 5.48944
C 2.0812 2.30755 0.590938
C 2.23039 2.17443 1.23875
C 2.14133 2.14809 1.97799
C 2.16783 2.27543 2.86957
C 2.25422 2.2347 3.92237
C 2.02699 2.25017 4.61631
C 2.23238 2.2655 5.50717
C 2.1668 2.85734 0.285619
C 2.27631 2.92184 1.11969
C 2.21931 2.96191 2.03937
C 2.16091 2.92827 2.87044
C 2.11987 3.13723 3.87841
C 2.01256 2.99522 4.88549
C 1.98025 2.90203 5.6951
C 1.99566 3.91101 0.349271
C 2.02124 4.02706 1.34506
C 2.26702 3.72014 2.14086
C 2.17829 3.79877 2.85585
C 2.08272 3.88519 3.84241
C 2.07072 3.87242 4.62322
C 2.05853 3.94657 5.49216
C 2.2145 4.69934 0.285547
C 2.11084 4.8164 1.19172
C 2.25785 4.68925 2.11738
C 2.09385 4.8843 3.07943
C 2.03313 4.8325 3.8737
C 2.03125 4.67344 4.65265
C 2.26474 4.58895 5.4945
C 2.13391 5.67333 0.550243
C 2.28107 5.61778 1.27168
C 2.12304 5.45876 2.11039
C 2.25257 5.55084 2.85659
C 2.07412 5.44283 3.87401
C 2.05561 5.54093 4.74824
C 2.29655 5.63463 5.57375
C 2.86808 0.466585 0.586692
C 3.04989 0.5994 1.3136
C 3.04631 0.538396 2.01921
C 2.91078 0.267471 2.92678
C 2.90839 0.445939 3.97819
C 2.92745 0.259813 4.85006
C 2.9572 0.345637 5.74209
C 3.00444 1.17339 0.311706
C 3.07226 1.35714 1.3714
C 3.12429 1.21832 2.17123
C 3.0048 1.38605 2.89846
C 3.09516 1.16801 3.81444
C 2.95051 1.28754 4.86084
C 3.0901 1.26648 5.53632
C 2.92395 2.21347 0.596753
C 3.11223 2.31116 1.45015
C 2.98339 1.99083 2.29519
C 3.09724 2.00701 2.97095
C 3.04153 2.06812 3.99516
C 2.86787 2.1615 4.70754
C 3.02974 2.14671 5.50959
C 2.83838 3.11682 0.573059
C 2.93935 2.96348 1.21439
C 2.88532 3.04429 2.1153
C 3.08929 3.08378 2.99827
C 3.03113 2.93749 3.70789
C 3.1406 3.02593 4.75608
C 2.94407 3.02138 5.6116
C 3.0261 3.73125 0.328861
C 3.05474 3.69995 1.3998
C 3.104 3.90164 2.29984
C 3.09833 3.88372 2.92235
C 2.9226 3.86364 3.95367
C 2.92729 3.76251 4.68355
C 2.84047 3.77678 5.72523
C 2.83772 4.67478 0.294379
C 2.93787 4.77338 1.16802
C 2.85486 4.79892 2.13441
C 3.03543 4.58022 3.01032
C 2.98425 4.72122 3.90035
C 3.05826 4.70159 4.59071
C 3.16517 4.54592 5.42012
C 2.99743 5.65885 0.544519
C 2.93395 5.56631 1.37927
C 3.06077 5.62454 2.27074
C 2.99835 5.68266 2.92785
C 2.99894 5.51074 3.8278
C 3.14978 5.7363 4.67807
C 3.16114 5.70655 5.54781
C 4.00711 0.555686 0.504341
C 3.94074 0.440166 1.41451
C 3.77781 0.371252 2.20641
C 3.70593 0.570067 3.05724
C 3.89556 0.507034 3.94815
C 3.87159 0.440778 4.84104
C 3.99329 0.376789 5.4438
C 3.77766 1.15031 0.586138
C 3.84914 1.11842 1.36457
C 3.74605 1.27242 1.98961
C 3.7405 1.26168 2.86255
C 3.90668 1.41609 3.81217
C 3.96229 1.3269 4.697
C 3.72319 1.13404 5.44167
C 3.98356 2.18403 0.276214
C 3.99143 2.02371 1.13138
C 4.01633 2.27024 2.30427
C 3.98688 2.11177 2.97036
C 3.89836 1.97473 3.91479
C 3.899 2.07806 4.84969
C 4.01954 2.14492 5.63127
C 4.02321 2.93811 0.537223
C 3.91077 2.87115 1.17318
C 4.01845 2.85696 2.1422
C 3.85604 2.92911 2.9493
C 3.75695 3.16678 3.78064
C 3.8033 3.16011 4.61984
C 3.95079 2.87574 5.47687
C 3.73597 3.79997 0.486152
C 3.72016 3.90757 1.2634
C 3.8742 3.97046 2.06275
C 3.84327 3.89124 3.12036
C 3.92506 3.97539 4.00974
C 4.02398 3.95106 4.72339
C 3.99082 3.76057 5.54481
C 3.96605 4.60641 0.382423
C 3.78373 4.85621 1.28788
C 3.89003 4.74045 1.99138
C 3.75184 4.66307 2.84219
C 3.9488 4.7766 3.77099
C 3.71483 4.63651 4.78159
C 4.02208 4.83165 5.6509
C 3.80655 5.57096 0.51101
C 3.90996 5.57449 1.34333
C 3.90555 5.55056 2.11195
C 3.79955 5.55579 2.83189
C 3.94518 5.49097 3.85718
C 3.75805 5.68487 4.6426
C 3.85254 5.643 5.43119
C 4.79292 0.266872 0.566642
C 4.81354 0.559517 1.28205
C 4.79506 0.268732 2.00418
C 4.78365 0.541483 2.98304
C 4.88147 0.536921 3.96773
C 4.66172 0.432769 4.63541
C 4.55795 0.540036 5.58601
C 4.70565 1.22516 0.371517
C 4.76703 1.13751 1.30453
C 4.55172 1.33554 2.28607
C 4.79296 1.2216 3.04272
C 4.73537 1.2091 3.92731
C 4.88143 1.11974 4.61503
C 4.82857 1.37875 5.42605
