216

C 0.419689 0.312167 0.383936
C 0.604593 0.394212 1.5243
C 0.474628 0.465922 2.55164
C 0.393406 0.572999 3.59414
C 0.393142 0.533954 4.37086
C 0.405962 0.398709 5.49526
C 0.369901 1.3252 0.673404
C 0.498037 1.3138 1.62327
C 0.310431 1.41437 2.44024
C 0.562881 1.53795 3.68417
C 0.622485 1.30826 4.382
C 0.418644 1.34412 5.64875
C 0.59885 2.66856 0.693851
C 0.558889 2.6492 1.48584
C 0.504674 2.6491 2.36995
C 0.381235 2.4136 3.69697
C 0.547929 2.43816 4.42831
C 0.460398 2.50524 5.64516
C 0.57752 3.5744 0.546429
C 0.43589 3.6103 1.34536
C 0.691868 3.42609 2.61106
C 0.305609 3.56411 3.3398
C 0.474931 3.37308 4.58759
C 0.691247 3.38579 5.51706
C 0.361854 4.67462 0.572768
C 0.309962 4.5255 1.64394
C 0.478825 4.60953 2.58071
C 0.515679 4.41256 3.52305
C 0.623429 4.56459 4.47707
C 0.375401 4.36558 5.50428
C 0.400612 5.482 0.371241
C 0.443827 5.39432 1.35706
C 0.530779 5.60906 2.32223
C 0.359529 5.39733 3.60828
C 0.374809 5.40768 4.48384
C 0.555464 5.68589 5.69808
C 1.3976 0.663974 0.405279
C 1.5185 0.65965 1.53353
C 1.49193 0.444892 2.30048
C 1.33515 0.69541 3.35425
C 1.54976 0.462451 4.61675
C 1.31603 0.555147 5.5602
C 1.61139 1.58571 0.638742
C 1.34246 1.68381 1.52039
C 1.39945 1.60197 2.64919
C 1.65339 1.47452 3.6643
C 1.31065 1.55496 4.66301
C 1.61541 1.6512 5.51976
C 1.52767 2.38849 0.415694
C 1.37722 2.54435 1.69969
C 1.61505 2.4938 2.36493
C 1.44044 2.5972 3.59166
C 1.63738 2.59254 4.68369
C 1.56775 2.45792 5.50547
C 1.40971 3.61115 0.583703
C 1.49601 3.56544 1.30577
C 1.41975 3.59469 2.3751
C 1.51931 3.5797 3.40994
C 1.38378 3.36433 4.69
C 1.64195 3.6511 5.4811
C 1.41913 4.46631 0.302213
C 1.69101 4.45817 1.6673
C 1.36454 4.65782 2.53128
C 1.55606 4.66712 3.45897
C 1.45333 4.58786 4.36413
C 1.52585 4.63941 5.31681
C 1.42265 5.50077 0.585571
C 1.68684 5.32174 1.52843
C 1.36925 5.51694 2.37688
C 1.47157 5.61732 3.3116
C 1.50214 5.50135 4.34099
C 1.46685 5.55048 5.49525
C 2.31466 0.626263 0.606556
C 2.57849 0.416424 1.63417
C 2.63189 0.444102 2.62277
C 2.35267 0.673483 3.62788
C 2.6043 0.67065 4.60701
C 2.57092 0.434849 5.3088
C 2.54445 1.44257 0.543855
C 2.36767 1.38087 1.32071
C 2.38183 1.36424 2.40818
C 2.49806 1.35734 3.3328
C 2.37525 1.63464 4.62512
C 2.61789 1.65044 5.5054
C 2.5084 2.42406 0.611732
C 2.38328 2.41222 1.3194
C 2.37663 2.63792 2.47175
C 2.4305 2.38096 3.56912
C 2.66982 2.63225 4.45426
C 2.47826 2.38361 5.40465
C 2.38222 3.5336 0.343865
C 2.33377 3.60735 1.33246
C 2.31358 3.48332 2.57899
C 2.52595 3.30322 3.44042
C 2.36258 3.49923 4.39879
C 2.59543 3.37434 5.52168
C 2.5356 4.42744 0.590338
C 2.41364 4.60502 1.42424
C 2.35391 4.68921 2.52547
C 2.63042 4.39041 3.54
C 2.39195 4.5866 4.42224
C 2.41725 4.51261 5.44454
C 2.32159 5.39943 0.658846
C 2.62209 5.50709 1.5189
C 2.49619 5.38959 2.44372
C 2.54764 5.37411 3.61913
C 2.37507 5.48285 4.33818
C 2.31905 5.5336 5.44035
C 3.43685 0.314246 0.53821
C 3.69429 0.387338 1.58266
C 3.51327 0.41275 2.4822
C 3.48299 0.6798 3.40435
C 3.42807 0.692146 4.68943
C 3.60213 0.536839 5.44521
C 3.49822 1.50611 0.307653
C 3.52914 1.65466 1.34783
C 3.62993 1.60715 2.5761
C 3.36483 1.6252 3.3857
C 3.60444 1.64308 4.42503
C 3.52793 1.33356 5.33322
C 3.65569 2.40881 0.3063
C 3.5892 2.45556 1.37927
C 3.52106 2.41631 2.34885
C 3.47319 2.6601 3.52481
C 3.34799 2.49442 4.69974
C 3.31029 2.3857 5.64429
C 3.32827 3.56285 0.407482
C 3.35812 3.69823 1.56924
C 3.64486 3.34016 2.49767
C 3.54134 3.4319 3.33183
C 3.42984 3.53272 4.48281
C 3.41585 3.51782 5.39375
C 3.40162 4.60433 0.40752
C 3.58358 4.48257 1.33314
C 3.46264 4.61913 2.39034
C 3.63416 4.4708 3.47027
C 3.44282 4.69835 4.59267
C 3.37199 4.63792 5.51932
C 3.36979 5.45235 0.428086
C 3.64219 5.35377 1.41025
C 3.48956 5.61889 2.64195
C 3.66125 5.55407 3.48362
C 3.47688 5.36855 4.46212
C 3.62799 5.47598 5.33268
C 4.41981 0.349968 0.519676
C 4.39821 0.464422 1.53961
C 4.67931 0.573731 2.5027
C 4.34609 0.54435 3.68447
C 4.5582 0.6993 4.53254
C 4.55403 0.628129 5.35574
C 4.39591 1.31205 0.414577
C 4.39312 1.52026 1.64122
C 4.41536 1.30312 2.65841
C 4.45006 1.40324 3.69911
C 4.50518 1.36895 4.36366
C 4.5843 1.58333 5.59997
C 4.64501 2.42137 0.533106
C 4.5056 2.61706 1.38153
C 4.61102 2.36267 2.45018
C 4.44226 2.50213 3.67098
C 4.60512 2.47755 4.45904
C 4.41128 2.58238 5.69621
C 4.63093 3.69636 0.691847
C 4.48062 3.32263 1.67772
C 4.61344 3.34152 2.46611
C 4.54845 3.41281 3.66102
C 4.34585 3.52175 4.49212
C 4.5347 3.50449 5.42785
C 4.31144 4.63629 0.668568
C 4.42924 4.45739 1.41679
C 4.3662 4.55167 2.46785
C 4.60418 4.59774 3.49798
C 4.53631 4.42707 4.32587
C 4.66403 4.53025 5.54876
C 4.43474 5.52494 0.546863
C 4.53045 5.35313 1.38367
C 4.56387 5.31661 2.63309
C 4.62133 5.55192 3.68314
C 4.61472 5.53101 4.40941
C 4.4097 5.50757 5.61261
C 5.41517 0.389591 0.464147
C 5.31388 0.40624 1.67944
C 5.31067 0.453915 2.34344
C 5.42751 0.568939 3.36269
C 5.33067 0.598744 4.49015
C 5.54133 0.34359 5.51204
C 5.48163 1.50809 0.550412
C 5.56797 1.48519 1.35583
C 5.69269 1.30357 2.32348
C 5.49701 1.60199 3.63527
C 5.42294 1.49403 4.60915
C 5.5709 1.56196 5.6492
C 5.49808 2.62977 0.415821
C 5.49876 2.42919 1.46576
C 5.67475 2.69235 2.45774
C 5.688 2.65765 3.47245
C 5.67496 2.6483 4.5884
C 5.59753 2.51353 5.65027
C 5.40744 3.43313 0.574149
C 5.32358 3.66508 1.56678
C 5.54482 3.59154 2.60617
C 5.51685 3.51424 3.64788
C 5.65883 3.43959 4.3511
C 5.40727 3.34203 5.68383
C 5.49066 4.30482 0.592002
C 5.37039 4.4845 1.32121
C 5.36391 4.47195 2.33964
C 5.55779 4.6521 3.44753
C 5.62267 4.54805 4.47983
C 5.34372 4.32304 5.34862
C 5.64749 5.54804 0.32225
C 5.65666 5.361 1.31994
C 5.68572 5.64862 2.68831
C 5.65136 5.46373 3.46542
C 5.54809 5.30385 4.56726
C 5.54883 5.4244 5.65797
