729

C 0.419689 0.312167 0.383936
C 0.604593 0.394212 1.5243
C 0.474628 0.465922 2.55164
C 0.393406 0.572999 3.59414
C 0.393142 0.533954 4.37086
C 0.405962 0.398709 5.49526
C 0.369901 0.325202 6.6734
C 0.498037 0.313799 7.62327
C 0.310431 0.414365 8.44024
C 0.562881 1.53795 0.684169
C 0.622485 1.30826 1.382
C 0.418644 1.34412 2.64875
C 0.59885 1.66856 3.69385
C 0.558889 1.6492 4.48584
C 0.504674 1.6491 5.36995
C 0.381235 1.4136 6.69697
C 0.547929 1.43816 7.42831
C 0.460398 1.50524 8.64516
C 0.57752 2.5744 0.546429
C 0.43589 2.6103 1.34536
C 0.691868 2.42609 2.61106
C 0.305609 2.56411 3.3398
C 0.474931 2.37308 4.58759
C 0.691247 2.38579 5.51706
C 0.361854 2.67462 6.57277
C 0.309962 2.5255 7.64394
C 0.478825 2.60953 8.58071
C 0.515679 3.41256 0.523045
C 0.623429 3.56459 1.47707
C 0.375401 3.36558 2.50428
C 0.400612 3.482 3.37124
C 0.443827 3.39432 4.35706
C 0.530779 3.60906 5.32223
C 0.359529 3.39733 6.60828
C 0.374809 3.40768 7.48384
C 0.555464 3.68589 8.69808
C 0.3976 4.66397 0.405279
C 0.518502 4.65965 1.53353
C 0.491929 4.44489 2.30048
C 0.335152 4.69541 3.35425
C 0.549763 4.46245 4.61675
C 0.316032 4.55515 5.5602
C 0.611387 4.58571 6.63874
C 0.342458 4.68381 7.52039
C 0.399453 4.60197 8.64919
C 0.653387 5.47452 0.664301
C 0.310654 5.55496 1.66301
C 0.615413 5.6512 2.51976
C 0.527672 5.38849 3.41569
C 0.37722 5.54435 4.69969
C 0.615047 5.4938 5.36493
C 0.440435 5.5972 6.59166
C 0.637377 5.59254 7.68369
C 0.567755 5.45792 8.50547
C 0.409711 6.61115 0.583703
C 0.496006 6.56544 1.30577
C 0.419753 6.59469 2.3751
C 0.519306 6.5797 3.40994
C 0.383778 6.36433 4.69
C 0.64195 6.6511 5.4811
C 0.419127 6.46631 6.30221
C 0.691013 6.45817 7.6673
C 0.364542 6.65782 8.53128
C 0.556058 7.66712 0.458967
C 0.453334 7.58786 1.36413
C 0.525855 7.63941 2.31681
C 0.422651 7.50077 3.58557
C 0.68684 7.32174 4.52843
C 0.369246 7.51694 5.37688
C 0.471566 7.61732 6.3116
C 0.502142 7.50135 7.34099
C 0.46685 7.55048 8.49525
C 0.314656 8.62626 0.606556
C 0.578486 8.41642 1.63417
C 0.631894 8.4441 2.62277
C 0.352667 8.67348 3.62788
C 0.6043 8.67065 4.60701
C 0.570919 8.43485 5.3088
C 0.544454 8.44257 6.54385
C 0.367667 8.38087 7.32071
C 0.381827 8.36424 8.40818
C 1.49806 0.357335 0.3328
C 1.37525 0.634642 1.62512
C 1.61789 0.650438 2.5054
C 1.5084 0.424062 3.61173
C 1.38328 0.412216 4.3194
C 1.37663 0.637917 5.47175
C 1.4305 0.380958 6.56912
C 1.66982 0.632252 7.45426
C 1.47826 0.383614 8.40465
C 1.38222 1.5336 0.343865
C 1.33377 1.60735 1.33246
C 1.31358 1.48332 2.57899
C 1.52595 1.30322 3.44042
C 1.36258 1.49923 4.39879
C 1.59543 1.37434 5.52168
C 1.5356 1.42744 6.59034
C 1.41364 1.60502 7.42424
C 1.35391 1.68921 8.52547
C 1.63042 2.39041 0.540001
C 1.39195 2.5866 1.42224
C 1.41725 2.51261 2.44454
C 1.32159 2.39943 3.65885
C 1.62209 2.50709 4.5189
C 1.49619 2.38959 5.44372
C 1.54764 2.37411 6.61913
C 1.37507 2.48285 7.33818
C 1.31905 2.5336 8.44035
C 1.43685 3.31425 0.53821
C 1.69429 3.38734 1.58266
C 1.51327 3.41275 2.4822
C 1.48299 3.6798 3.40435
C 1.42807 3.69215 4.68943
C 1.60213 3.53684 5.44521
C 1.49822 3.50611 6.30765
C 1.52914 3.65466 7.34783
C 1.62993 3.60715 8.5761
C 1.36483 4.6252 0.385697
C 1.60444 4.64308 1.42503
C 1.52793 4.33356 2.33322
C 1.65569 4.40881 3.3063
C 1.5892 4.45556 4.37927
C 1.52106 4.41631 5.34885
C 1.47319 4.6601 6.52481
C 1.34799 4.49442 7.69974
C 1.31029 4.3857 8.64429
C 1.32827 5.56285 0.407482
C 1.35812 5.69823 1.56924
C 1.64486 5.34016 2.49767
C 1.54134 5.4319 3.33183
C 1.42984 5.53272 4.48281
C 1.41585 5.51782 5.39375
C 1.40162 5.60433 6.40752
C 1.58358 5.48257 7.33314
C 1.46264 5.61913 8.39034
C 1.63416 6.4708 0.470271
C 1.44282 6.69835 1.59267
C 1.37199 6.63792 2.51932
C 1.36979 6.45235 3.42809
C 1.64219 6.35377 4.41025
C 1.48956 6.61889 5.64195
C 1.66125 6.55407 6.48362
C 1.47688 6.36855 7.46212
C 1.62799 6.47598 8.33268
C 1.41981 7.34997 0.519676
C 1.39821 7.46442 1.53961
C 1.67931 7.57373 2.5027
C 1.34609 7.54435 3.68447
C 1.5582 7.6993 4.53254
C 1.55403 7.62813 5.35574
C 1.39591 7.31205 6.41458
C 1.39312 7.52026 7.64122
C 1.41536 7.30312 8.65841
C 1.45006 8.40324 0.699108
C 1.50518 8.36895 1.36366
C 1.5843 8.58333 2.59997
C 1.64501 8.42137 3.53311
C 1.5056 8.61706 4.38153
C 1.61102 8.36267 5.45018
C 1.44226 8.50213 6.67098
C 1.60512 8.47755 7.45904
C 1.41128 8.58238 8.69621
C 2.63093 0.696358 0.691847
C 2.48062 0.322632 1.67772
C 2.61344 0.341516 2.46611
C 2.54845 0.412808 3.66102
C 2.34585 0.521752 4.49212
C 2.5347 0.504494 5.42785
C 2.31144 0.636287 6.66857
C 2.42924 0.457394 7.41679
C 2.3662 0.551667 8.46785
C 2.60418 1.59774 0.497979
C 2.53631 1.42707 1.32587
C 2.66403 1.53025 2.54876
C 2.43474 1.52494 3.54686
C 2.53045 1.35313 4.38367
C 2.56387 1.31661 5.63309
C 2.62133 1.55192 6.68314
C 2.61472 1.53101 7.40941
C 2.4097 1.50757 8.61261
C 2.41517 2.38959 0.464147
C 2.31388 2.40624 1.67944
C 2.31067 2.45391 2.34344
C 2.42751 2.56894 3.36269
C 2.33067 2.59874 4.49015
C 2.54133 2.34359 5.51204
C 2.48163 2.50809 6.55041
C 2.56797 2.48519 7.35583
C 2.69269 2.30357 8.32348
C 2.49701 3.60199 0.635272
C 2.42294 3.49403 1.60915
C 2.5709 3.56196 2.6492
C 2.49808 3.62977 3.41582
C 2.49876 3.42919 4.46576
C 2.67475 3.69235 5.45774
C 2.688 3.65765 6.47245
C 2.67496 3.6483 7.5884
C 2.59753 3.51353 8.65027
C 2.40744 4.43313 0.574149
C 2.32358 4.66508 1.56678
C 2.54482 4.59154 2.60617
C 2.51685 4.51424 3.64788
C 2.65883 4.43959 4.3511
C 2.40727 4.34203 5.68383
C 2.49066 4.30482 6.592
C 2.37039 4.4845 7.32121
C 2.36391 4.47195 8.33964
C 2.55779 5.6521 0.447529
C 2.62267 5.54805 1.47983
C 2.34372 5.32304 2.34862
C 2.64749 5.54804 3.32225
C 2.65666 5.361 4.31994
C 2.68572 5.64862 5.68831
C 2.65136 5.46373 6.46542
C 2.54809 5.30385 7.56726
C 2.54883 5.4244 8.65797
C 2.68947 6.50241 0.569816
C 2.69375 6.4278 1.62676
C 2.56256 6.34967 2.36871
C 2.6882 6.33312 3.49924
C 2.49871 6.41729 4.44085
C 2.38311 6.69458 5.41075
C 2.43718 6.6868 6.38981
C 2.60926 6.35503 7.38968
C 2.35863 6.43329 8.56718
C 2.34019 7.55883 0.473964
C 2.5199 7.6322 1.40654
C 2.48382 7.53978 2.64042
C 2.57924 7.63795 3.67803
C 2.69464 7.60957 4.51062
C 2.65595 7.38733 5.46895
C 2.62706 7.37414 6.44616
C 2.41436 7.66557 7.50253
C 2.53837 7.53052 8.32328
C 2.37714 8.44025 0.315893
C 2.60694 8.5727 1.39948
C 2.33397 8.40926 2.57853
C 2.69243 8.63692 3.59272
C 2.44098 8.49946 4.59618
C 2.56162 8.50357 5.56721
C 2.55648 8.47565 6.46394
C 2.43281 8.48176 7.30387
C 2.60271 8.40613 8.50004
C 3.38439 0.632345 0.416368
C 3.49463 0.583503 1.33638
C 3.59174 0.31135 2.66108
C 3.61579 0.652769 3.49572
C 3.59424 0.31352 4.33822
C 3.58093 0.63173 5.48021
C 3.69505 0.626407 6.62901
C 3.43867 0.504897 7.40798
C 3.31761 0.630042 8.51702
C 3.48993 1.42936 0.433436
C 3.56154 1.3271 1.52196
C 3.31034 1.55813 2.66708
C 3.59179 1.4252 3.54984
C 3.5246 1.41061 4.58186
C 3.695 1.30636 5.3842
C 3.63333 1.60854 6.33039
C 3.65938 1.39363 7.66224
C 3.51856 1.46579 8.3685
C 3.40094 2.38855 0.590985
C 3.49023 2.65718 1.64453
C 3.3371 2.31177 2.47683
C 3.64599 2.59811 3.68158
C 3.33227 2.58317 4.66126
C 3.40588 2.63304 5.42476
C 3.36136 2.32832 6.30844
C 3.50828 2.39763 7.37409
C 3.33308 2.66892 8.30833
C 3.67585 3.47653 0.375341
C 3.55963 3.33145 1.43061
C 3.31286 3.49336 2.51894
C 3.39926 3.50264 3.38999
C 3.34013 3.37301 4.51109
C 3.56231 3.54428 5.37978
C 3.34679 3.30583 6.68296
C 3.64537 3.45139 7.38935
C 3.36958 3.55265 8.53844
C 3.52148 4.69158 0.350232
C 3.54813 4.57194 1.46424
C 3.64604 4.60118 2.62664
C 3.49662 4.45666 3.5206
C 3.69557 4.69992 4.6049
C 3.43728 4.34025 5.41001
C 3.42998 4.48418 6.63218
C 3.45284 4.61764 7.41509
C 3.58982 4.50982 8.68407
C 3.56247 5.35417 0.359527
C 3.37376 5.41646 1.49158
C 3.55348 5.58892 2.65039
C 3.5875 5.35755 3.35683
C 3.56897 5.49702 4.43639
C 3.59203 5.40234 5.66548
C 3.58791 5.39853 6.34821
C 3.64747 5.62543 7.68201
C 3.30304 5.6191 8.64131
C 3.30047 6.65072 0.413136
C 3.5818 6.44868 1.35639
C 3.39746 6.37989 2.69104
C 3.43885 6.37055 3.4119
C 3.56715 6.35592 4.50605
C 3.55489 6.58189 5.37395
C 3.39807 6.61198 6.55373
C 3.65861 6.33192 7.43935
C 3.34193 6.62853 8.33278
C 3.36573 7.58834 0.421032
C 3.49109 7.67197 1.44702
C 3.45181 7.54889 2.548
C 3.44281 7.48251 3.53832
C 3.48393 7.41766 4.63823
C 3.53818 7.61829 5.55383
C 3.46248 7.64533 6.68316
C 3.40932 7.3918 7.38463
C 3.6535 7.45838 8.58899
C 3.57014 8.625 0.633419
C 3.4658 8.5087 1.66365
C 3.49781 8.48253 2.4563
C 3.51688 8.56414 3.57655
C 3.68414 8.61761 4.39541
C 3.60747 8.33002 5.4294
C 3.65213 8.48676 6.43903
C 3.53218 8.626 7.51973
C 3.43808 8.60539 8.56467
C 4.69265 0.330833 0.513658
C 4.4544 0.489484 1.55553
C 4.64388 0.334442 2.36556
C 4.50441 0.67194 3.69488
C 4.6187 0.300133 4.53157
C 4.35353 0.374665 5.3971
C 4.59279 0.471385 6.37605
C 4.52682 0.416538 7.54582
C 4.64157 0.591133 8.57016
C 4.42565 1.494 0.470567
C 4.61386 1.52386 1.39826
C 4.57476 1.64682 2.57469
C 4.67286 1.49601 3.66556
C 4.64238 1.32752 4.4141
C 4.35982 1.42039 5.41207
C 4.59049 1.48684 6.50361
C 4.35538 1.63171 7.62458
C 4.35519 1.34313 8.41495
C 4.58205 2.37237 0.617907
C 4.56668 2.37912 1.40377
C 4.39167 2.64405 2.31092
C 4.55343 2.54179 3.44236
C 4.5607 2.31689 4.59173
C 4.56389 2.33131 5.5048
C 4.3339 2.52165 6.34041
C 4.3365 2.51231 7.62148
C 4.69594 2.44087 8.6673
C 4.64213 3.44897 0.357311
C 4.31761 3.3482 1.47454
C 4.61908 3.32905 2.55319
C 4.40733 3.60671 3.42145
C 4.32748 3.55147 4.38144
C 4.34018 3.34 5.51956
C 4.48837 3.62413 6.39526
C 4.52222 3.31585 7.3683
C 4.63657 3.30295 8.69974
C 4.38958 4.62134 0.632927
C 4.60448 4.53428 1.32679
C 4.57653 4.41245 2.65699
C 4.60553 4.47641 3.40882
C 4.41745 4.68887 4.36234
C 4.52844 4.48136 5.47468
C 4.47649 4.5099 6.42766
C 4.63332 4.4445 7.44574
C 4.46958 4.5034 8.44784
C 4.64643 5.39182 0.69249
C 4.47655 5.45158 1.63404
C 4.5153 5.49114 2.39926
C 4.55985 5.38384 3.51728
C 4.48893 5.45271 4.44155
C 4.45925 5.35241 5.67524
C 4.48478 5.63654 6.58681
C 4.34046 5.3253 7.39552
C 4.47294 5.5089 8.3983
C 4.41335 6.59373 0.537595
C 4.35518 6.51909 1.50899
C 4.41962 6.68677 2.39676
C 4.46584 6.4423 3.67929
C 4.30932 6.57745 4.67364
C 4.52483 6.66302 5.35347
C 4.52517 6.6954 6.53254
C 4.58945 6.36816 7.62543
C 4.64641 6.41657 8.62385
C 4.51705 7.66197 0.336755
C 4.4354 7.43352 1.33691
C 4.59922 7.47661 2.66647
C 4.32826 7.39106 3.40565
C 4.32354 7.3113 4.54149
C 4.5783 7.52965 5.48868
C 4.65695 7.69671 6.61463
C 4.64824 7.37576 7.43881
C 4.55434 7.61046 8.53323
C 4.62951 8.38416 0.447143
C 4.53344 8.49624 1.53142
C 4.55376 8.39435 2.51444
C 4.44159 8.41114 3.65079
C 4.38975 8.32025 4.65058
C 4.43376 8.41083 5.61638
C 4.55982 8.68884 6.32048
C 4.568 8.51608 7.40553
C 4.3038 8.51215 8.38271
C 5.48914 0.328015 0.354216
C 5.30929 0.493866 1.60633
C 5.37422 0.454827 2.47897
C 5.32463 0.627379 3.55323
C 5.33626 0.467995 4.58547
C 5.51655 0.600216 5.42697
C 5.34401 0.698904 6.68477
C 5.36756 0.533824 7.58179
C 5.30785 0.665427 8.4353
C 5.62942 1.47737 0.487252
C 5.64972 1.52018 1.50763
C 5.69195 1.56967 2.57669
C 5.59145 1.68339 3.40941
C 5.3867 1.69171 4.53745
C 5.3507 1.48013 5.49931
C 5.44035 1.68706 6.49144
C 5.66131 1.46461 7.47484
C 5.45417 1.55459 8.42825
C 5.63586 2.35647 0.663641
C 5.40605 2.68089 1.63727
C 5.31927 2.58795 2.61147
C 5.31425 2.53612 3.45263
C 5.69408 2.39826 4.58408
C 5.48202 2.34951 5.43343
C 5.51524 2.60216 6.66311
C 5.31962 2.52026 7.59212
C 5.69466 2.53308 8.50402
C 5.45531 3.56572 0.322368
C 5.6364 3.59158 1.52655
C 5.33887 3.35724 2.391
C 5.52576 3.58169 3.58221
C 5.6459 3.31556 4.67837
C 5.41608 3.48868 5.56348
C 5.56721 3.57139 6.68144
C 5.4432 3.65304 7.3099
C 5.66492 3.63212 8.57919
C 5.69555 4.36129 0.480503
C 5.40844 4.4498 1.45029
C 5.59149 4.57654 2.58516
C 5.52767 4.69929 3.4006
C 5.69 4.63361 4.43182
C 5.60582 4.69809 5.53644
C 5.49172 4.54145 6.38838
C 5.53733 4.38191 7.6446
C 5.43342 4.347 8.61325
C 5.66886 5.59293 0.342617
C 5.55786 5.60477 1.58558
C 5.47676 5.32294 2.65167
C 5.34027 5.67293 3.61567
C 5.49386 5.49163 4.66162
C 5.50771 5.46956 5.51421
C 5.53671 5.30497 6.63806
C 5.44331 5.47414 7.6169
C 5.4494 5.46363 8.48281
C 5.40795 6.6225 0.539104
C 5.51537 6.34874 1.32149
C 5.32497 6.44384 2.65892
C 5.34445 6.54224 3.4031
C 5.35632 6.39445 4.53817
C 5.48127 6.44285 5.42674
C 5.38228 6.40747 6.55947
C 5.35348 6.69271 7.60375
C 5.62903 6.38802 8.43607
C 5.41611 7.55874 0.480879
C 5.32959 7.44869 1.52104
C 5.59468 7.60915 2.53943
C 5.42221 7.60908 3.57417
C 5.66616 7.33714 4.52295
C 5.57839 7.47906 5.48768
C 5.55379 7.58063 6.41015
C 5.43628 7.69252 7.64454
C 5.6224 7.43245 8.40652
C 5.52752 8.65566 0.357008
C 5.44025 8.30292 1.51728
C 5.57908 8.35757 2.60589
C 5.57493 8.57855 3.33473
C 5.36348 8.4719 4.59453
C 5.50711 8.45563 5.44106
C 5.66418 8.32429 6.5908
C 5.51206 8.36079 7.40838
C 5.69001 8.43472 8.47944
C 6.54243 0.355336 0.336476
C 6.55456 0.618728 1.36769
C 6.4095 0.624446 2.46739
C 6.36429 0.364919 3.59203
C 6.44042 0.380976 4.46565
C 6.37354 0.606699 5.59045
C 6.36336 0.309266 6.43107
C 6.40861 0.51582 7.38831
C 6.46048 0.654855 8.3475
C 6.5817 1.43775 0.659918
C 6.63382 1.3721 1.4926
C 6.48128 1.60783 2.44331
C 6.54247 1.35225 3.49283
C 6.41313 1.39322 4.67198
C 6.59727 1.51427 5.65986
C 6.51323 1.50823 6.46097
C 6.50086 1.52876 7.35006
C 6.47245 1.61107 8.3738
C 6.62655 2.57785 0.601801
C 6.66747 2.33519 1.58158
C 6.39829 2.69078 2.55412
C 6.45152 2.54373 3.34483
C 6.54538 2.44447 4.45067
C 6.59988 2.45346 5.33956
C 6.39561 2.39484 6.33672
C 6.60028 2.38416 7.45828
C 6.59063 2.57598 8.66575
C 6.6012 3.50465 0.687159
C 6.4734 3.6575 1.47959
C 6.34331 3.5614 2.41284
C 6.45062 3.51881 3.69758
C 6.40808 3.44798 4.551
C 6.52461 3.44912 5.49516
C 6.37095 3.68155 6.5859
C 6.62494 3.44923 7.47325
C 6.52598 3.3088 8.53906
C 6.63935 4.48291 0.449456
C 6.6108 4.30162 1.3775
C 6.36222 4.50882 2.6816
C 6.6011 4.5588 3.40632
C 6.42137 4.60075 4.5604
C 6.36274 4.40289 5.4117
C 6.38313 4.64739 6.53424
C 6.3251 4.63474 7.33688
C 6.48938 4.32633 8.41112
C 6.6406 5.38904 0.44083
C 6.43024 5.47663 1.58471
C 6.57041 5.31692 2.62077
C 6.31805 5.51731 3.68849
C 6.44697 5.35183 4.54509
C 6.37182 5.613 5.45992
C 6.43323 5.65415 6.51996
C 6.69906 5.43718 7.33379
C 6.59531 5.36585 8.67388
C 6.53728 6.67716 0.507987
C 6.34248 6.30753 1.42886
C 6.37384 6.50357 2.48053
C 6.39132 6.68886 3.67162
C 6.48978 6.40223 4.41889
C 6.42556 6.64742 5.66765
C 6.56198 6.56884 6.31181
C 6.3601 6.42105 7.36516
C 6.6727 6.64316 8.59597
C 6.64443 7.41112 0.32645
C 6.45335 7.42673 1.65527
C 6.50701 7.39181 2.61222
C 6.51977 7.35891 3.35137
C 6.4283 7.67056 4.67204
C 6.38022 7.57646 5.35918
C 6.58482 7.50286 6.59618
C 6.66002 7.40711 7.44629
C 6.63977 7.47779 8.36916
C 6.353 8.65516 0.305162
C 6.65731 8.40786 1.63374
C 6.61027 8.52823 2.62158
C 6.33298 8.5474 3.3303
C 6.30676 8.35891 4.36273
C 6.62117 8.60949 5.63203
C 6.35825 8.5052 6.66797
C 6.69639 8.44124 7.57027
C 6.30504 8.59968 8.60798
C 7.43848 0.504081 0.693846
C 7.4619 0.632928 1.62469
C 7.51224 0.597491 2.62771
C 7.60435 0.322024 3.45591
C 7.63356 0.48042 4.62063
C 7.33783 0.487651 5.54858
C 7.53272 0.491233 6.35051
C 7.34915 0.301295 7.45917
C 7.60442 0.627527 8.64202
C 7.6055 1.46269 0.310877
C 7.31115 1.50905 1.63375
C 7.39552 1.42768 2.59956
C 7.5816 1.34791 3.69424
C 7.65283 1.68676 4.50866
C 7.40202 1.50366 5.41756
C 7.50799 1.42705 6.50487
C 7.69997 1.54716 7.38634
C 7.55349 1.35544 8.50099
C 7.34858 2.38122 0.525676
C 7.4322 2.63709 1.63365
C 7.37408 2.50227 2.60909
C 7.69841 2.34962 3.31827
C 7.5186 2.33863 4.32476
C 7.49273 2.32385 5.40349
C 7.49906 2.30166 6.51578
C 7.52083 2.63391 7.30383
C 7.67927 2.6213 8.45975
C 7.45041 3.32067 0.442269
C 7.62203 3.6299 1.47866
C 7.59758 3.45311 2.46601
C 7.5059 3.50367 3.65187
C 7.59152 3.34367 4.33944
C 7.31173 3.32245 5.44569
C 7.54848 3.47468 6.48466
C 7.34058 3.6841 7.63098
C 7.67971 3.41429 8.4218
C 7.58126 4.57672 0.41357
C 7.67479 4.57872 1.66915
C 7.57252 4.49076 2.34606
C 7.50802 4.44232 3.35252
C 7.6206 4.30662 4.42906
C 7.6155 4.5616 5.53441
C 7.48759 4.36015 6.49931
C 7.47267 4.39074 7.64366
C 7.66982 4.60641 8.46386
C 7.36725 5.53742 0.594127
C 7.4914 5.37346 1.46102
C 7.62532 5.67753 2.6552
C 7.59295 5.30336 3.40805
C 7.37425 5.6213 4.4367
C 7.54009 5.30739 5.45898
C 7.68975 5.37613 6.68522
C 7.66212 5.4459 7.46074
C 7.30878 5.30304 8.62796
C 7.34209 6.4457 0.642667
C 7.30565 6.4436 1.50319
C 7.43125 6.561 2.45225
C 7.41539 6.41818 3.62332
C 7.34753 6.68572 4.37654
C 7.64715 6.46923 5.6084
C 7.43936 6.5922 6.43869
C 7.47528 6.31273 7.59284
C 7.52273 6.44619 8.4648
C 7.44405 7.51348 0.67152
C 7.42921 7.38787 1.4018
C 7.49171 7.41295 2.69575
C 7.40467 7.69713 3.44588
C 7.58633 7.33085 4.46924
C 7.63704 7.45721 5.49871
C 7.36433 7.35095 6.55301
C 7.30087 7.48141 7.38416
C 7.34529 7.64805 8.34634
C 7.67514 8.50782 0.37192
C 7.65699 8.62462 1.576
C 7.58356 8.54031 2.42782
C 7.53518 8.49849 3.63973
C 7.48619 8.35328 4.50156
C 7.39584 8.65638 5.38662
C 7.47074 8.32618 6.63944
C 7.42834 8.42725 7.66014
C 7.39127 8.32726 8.51899
C 8.52691 0.424049 0.386586
C 8.35681 0.66055 1.45587
C 8.34185 0.507628 2.31104
C 8.32187 0.653674 3.49777
C 8.63545 0.669827 4.37557
C 8.32162 0.420682 5.60137
C 8.6252 0.675254 6.39579
C 8.64301 0.537831 7.32978
C 8.46911 0.458415 8.38835
C 8.44965 1.69403 0.361282
C 8.65948 1.52869 1.65326
C 8.3871 1.6316 2.68154
C 8.42638 1.31652 3.69707
C 8.69934 1.43793 4.50749
C 8.43806 1.67559 5.52013
C 8.3911 1.56465 6.34159
C 8.57704 1.48581 7.411
C 8.3085 1.69744 8.44821
C 8.52179 2.38941 0.667627
C 8.60955 2.56963 1.30191
C 8.3612 2.49924 2.54542
C 8.63481 2.69341 3.4071
C 8.64945 2.35917 4.39945
C 8.55143 2.43076 5.45646
C 8.69543 2.66659 6.35981
C 8.35965 2.42621 7.39094
C 8.37836 2.41674 8.34451
C 8.34667 3.36283 0.343366
C 8.35238 3.68542 1.50324
C 8.5489 3.3245 2.48301
C 8.49374 3.41609 3.65067
C 8.38523 3.38842 4.69528
C 8.51083 3.54802 5.40133
C 8.52335 3.61364 6.47955
C 8.45859 3.58339 7.41441
C 8.46788 3.57875 8.39629
C 8.5687 4.33163 0.66705
C 8.51253 4.61936 1.5956
C 8.47474 4.43674 2.53437
C 8.61443 4.53192 3.57434
C 8.65752 4.41512 4.32613
C 8.66829 4.49438 5.42141
C 8.36188 4.35673 6.55313
C 8.30005 4.35708 7.51887
C 8.45229 4.57671 8.51881
C 8.646 5.66883 0.40442
C 8.47971 5.3623 1.53291
C 8.4335 5.50937 2.3748
C 8.61196 5.63945 3.67981
C 8.54685 5.66811 4.35385
C 8.59103 5.42799 5.5457
C 8.63359 5.46698 6.33506
C 8.3959 5.53497 7.58797
C 8.56486 5.51892 8.4366
C 8.55722 6.65281 0.393777
C 8.41787 6.4679 1.6277
C 8.38258 6.61464 2.52126
C 8.53996 6.57487 3.50554
C 8.46277 6.30549 4.5339
C 8.30095 6.62296 5.36042
C 8.58271 6.65214 6.34889
C 8.40786 6.67012 7.50313
C 8.38626 6.39432 8.66131
C 8.44486 7.63131 0.613058
C 8.67204 7.36307 1.64563
C 8.47232 7.42373 2.67708
C 8.63765 7.33822 3.33565
C 8.62857 7.59295 4.64123
C 8.60848 7.47696 5.4731
C 8.31726 7.35449 6.44841
C 8.55931 7.56316 7.41005
C 8.69233 7.52719 8.3106
C 8.4135 8.30894 0.531027
C 8.37569 8.4308 1.3389
C 8.42225 8.53499 2.5671
C 8.571 8.65418 3.54975
C 8.68084 8.3613 4.54789
C 8.65403 8.41611 5.59484
C 8.54362 8.39031 6.47694
C 8.49597 8.38478 7.45419
C 8.54969 8.4241 8.50822
