875

C 0.37772 0.28095 0.345542
C 0.544134 0.354791 1.37187
C 0.427165 0.41933 2.29647
C 0.354065 0.515699 3.23473
C 0.353828 0.480559 3.93377
C 0.365366 0.358838 4.94573
C 0.332911 0.292682 6.00606
C 0.448234 0.282419 6.86094
C 0.279388 0.372929 7.59622
C 0.506593 0.484153 8.71575
C 0.560237 1.17744 0.343797
C 0.376779 1.20971 1.48388
C 0.538965 1.5017 2.42447
C 0.503 1.48428 3.13726
C 0.454206 1.48419 3.93296
C 0.343111 1.27224 5.12727
C 0.493136 1.29435 5.78548
C 0.414358 1.35472 6.88064
C 0.519768 1.41696 7.69179
C 0.392301 1.44927 8.41083
C 0.622681 2.18348 0.549955
C 0.275048 2.3077 1.20582
C 0.427438 2.13577 2.32883
C 0.622122 2.14721 3.16535
C 0.325668 2.40716 4.11549
C 0.278965 2.27295 5.07954
C 0.430942 2.34858 5.92263
C 0.464111 2.17131 6.77074
C 0.561086 2.30813 7.62937
C 0.337861 2.12902 8.55385
C 0.360551 3.1338 0.334117
C 0.399444 3.05489 1.22136
C 0.477701 3.24816 2.09001
C 0.323576 3.0576 3.24745
C 0.337328 3.06691 4.03546
C 0.499918 3.3173 5.12827
C 0.35784 3.29758 5.76475
C 0.466652 3.29368 6.78018
C 0.442736 3.1004 7.47043
C 0.301637 3.32587 8.41883
C 0.494786 4.01621 0.555075
C 0.284429 4.09963 1.40418
C 0.550249 4.12714 2.37487
C 0.308212 4.21543 3.16835
C 0.359507 4.14177 4.18427
C 0.588048 4.02707 5.09787
C 0.279588 4.09947 5.99671
C 0.553872 4.18608 6.76778
C 0.474905 3.94964 7.57413
C 0.339498 4.08992 8.72972
C 0.553542 4.94442 0.32844
C 0.396392 5.03748 1.43249
C 0.573639 5.03329 2.41532
C 0.510979 4.91213 3.15492
C 0.36874 5.05003 4.12533
C 0.446405 5.00889 4.77519
C 0.377778 5.03522 5.73759
C 0.467376 5.02173 6.66894
C 0.345401 4.8279 7.821
C 0.577755 5.08599 8.53299
C 0.377214 5.81968 0.271992
C 0.621912 5.81235 1.50057
C 0.328088 5.99204 2.27815
C 0.500452 6.00041 3.11307
C 0.408001 5.92907 3.92772
C 0.473269 5.97547 4.78513
C 0.380386 5.85069 5.92701
C 0.618156 5.68957 6.77559
C 0.332321 5.86524 7.53919
C 0.42441 5.95559 8.38044
C 0.451928 6.75121 0.306894
C 0.420165 6.79543 1.34573
C 0.283191 6.86364 2.3459
C 0.520638 6.67478 3.27075
C 0.568705 6.69969 4.1605
C 0.3174 6.90613 5.06509
C 0.54387 6.90358 5.94631
C 0.513827 6.69136 6.57792
C 0.490009 6.69832 7.68947
C 0.3309 6.64279 8.38864
C 0.343644 7.52782 0.367363
C 0.448257 7.5216 1.19952
C 0.337725 7.77118 2.36261
C 0.5561 7.78539 3.15486
C 0.457557 7.58166 4.15056
C 0.344953 7.57099 4.78746
C 0.338968 7.77413 5.82457
C 0.387448 7.54286 6.81221
C 0.602836 7.76903 7.60883
C 0.430438 7.54525 8.46419
C 0.343996 8.58024 0.309478
C 0.30039 8.64662 1.19922
C 0.282219 8.53499 2.32109
C 0.473358 8.3729 3.09638
C 0.326323 8.54931 3.95891
C 0.535886 8.43691 4.96952
C 0.48204 8.4847 5.9313
C 0.372274 8.64452 6.68181
C 0.318515 8.72029 7.67293
C 0.567374 8.45136 8.586
C 1.25276 0.527942 0.380018
C 1.27552 0.461349 1.30008
C 1.18943 0.359489 2.39296
C 1.45988 0.456384 3.16701
C 1.34657 0.350631 3.99935
C 1.39288 0.336696 5.05722
C 1.23757 0.434569 5.70436
C 1.18715 0.480241 6.69632
C 1.29316 0.282822 7.68439
C 1.52486 0.348604 8.62439
C 1.36195 1.27147 0.433977
C 1.33469 1.51182 1.26391
C 1.28526 1.52293 2.42048
C 1.44191 1.38315 3.10069
C 1.34839 1.35549 3.87689
C 1.37623 1.4892 4.81305
C 1.46694 1.44644 5.91849
C 1.22834 1.46268 6.64713
C 1.444 1.47877 7.58253
C 1.37514 1.2002 8.3999
C 1.49012 2.16793 0.27567
C 1.43028 2.21 1.24134
C 1.36895 2.17468 2.11396
C 1.32587 2.39409 3.17233
C 1.21319 2.24498 4.22976
C 1.17926 2.14713 5.07986
C 1.19544 2.30656 5.76673
C 1.22231 2.42841 6.81232
C 1.48037 2.10615 7.6479
C 1.3872 2.18871 8.39865
C 1.28686 3.17945 0.434531
C 1.27426 3.16604 1.25438
C 1.26146 3.2439 2.16677
C 1.42522 3.13431 2.99982
C 1.31638 3.25722 3.95131
C 1.47074 3.12372 4.92324
C 1.29854 3.32852 5.9334
C 1.23479 3.27413 6.76739
C 1.23281 3.10711 7.58528
C 1.47797 3.01839 8.46923
C 1.3406 4.157 0.577755
C 1.49512 4.09866 1.33526
C 1.32919 3.9317 2.21591
C 1.46519 4.02838 2.99942
C 1.27783 3.91497 4.06771
C 1.25839 4.01798 4.98565
C 1.51138 4.11636 5.85243
C 1.21148 4.08991 6.91603
C 1.40238 4.22937 7.67928
C 1.39863 4.16532 8.42017
C 1.25632 4.78084 0.373119
C 1.25381 4.96824 1.4771
C 1.27382 4.7728 2.39257
C 1.30506 4.86292 3.3292
C 1.35466 4.83206 3.92729
C 1.42587 5.025 5.03997
C 1.48051 4.87923 5.8798
C 1.35504 5.05536 6.64338
C 1.44992 4.82641 7.60517
C 1.29804 4.95192 8.70388
C 1.44461 5.8298 0.413132
C 1.27015 5.92414 1.52659
C 1.46784 6.02672 2.42266
C 1.33255 5.69037 3.30995
C 1.4521 5.70736 4.0195
C 1.39361 5.77153 5.09492
C 1.21127 5.86958 5.84291
C 1.38123 5.85404 6.68507
C 1.1803 5.97266 7.80171
C 1.28632 5.81165 8.47511
C 1.22958 6.7965 0.421068
C 1.44376 6.83797 1.34818
C 1.38268 6.68436 2.09328
C 1.49763 6.77723 3.19389
C 1.29127 6.77245 4.09218
C 1.37741 6.61781 4.8453
C 1.40748 6.58495 5.96979
C 1.4592 6.79673 6.91483
C 1.45324 6.7779 7.56847
C 1.26873 6.75682 8.65135
C 1.27365 7.55063 0.417732
C 1.18249 7.56562 1.51149
C 1.1796 7.60852 2.1091
C 1.28476 7.71205 3.02642
C 1.1976 7.73887 4.04113
C 1.3872 7.50923 4.96084
C 1.33346 7.65729 5.89537
C 1.41117 7.63667 6.62025
C 1.52342 7.47321 7.49113
C 1.34731 7.74179 8.67175
C 1.28064 8.54463 0.548234
C 1.41381 8.60576 1.48428
C 1.34827 8.6668 2.17424
C 1.34888 8.48627 3.11919
C 1.50727 8.72311 4.01197
C 1.5192 8.69188 4.92521
C 1.50746 8.68347 5.92956
C 1.43778 8.56217 6.88524
C 1.2667 8.48981 7.71673
C 1.19122 8.69857 8.61011
C 2.29034 0.532386 0.545554
C 2.26517 0.462817 1.48309
C 2.39295 0.395629 2.11599
C 2.16654 0.307826 3.31544
C 2.24159 0.274342 4.1328
C 2.13335 0.436046 4.78909
C 2.12752 0.424759 5.70568
C 2.30202 0.58689 6.70278
C 2.3604 0.493245 7.63185
C 2.10935 0.290737 8.41376
C 2.38274 1.39324 0.290025
C 2.391 1.2249 1.18795
C 2.41715 1.48375 2.41948
C 2.38623 1.31735 3.11888
C 2.29328 1.17346 4.11053
C 2.29395 1.28196 5.09217
C 2.42052 1.35217 5.91283
C 2.42437 1.28502 6.86408
C 2.3063 1.21471 7.53184
C 2.41938 1.19981 8.54931
C 2.24884 2.17556 0.396766
C 2.1448 2.42512 1.26967
C 2.19346 2.41812 2.15083
C 2.34833 2.11953 3.05071
C 2.12276 2.18996 4.11046
C 2.10617 2.30295 4.92657
C 2.26791 2.36898 5.76588
C 2.23544 2.2858 6.87638
C 2.32131 2.37416 7.81023
C 2.42518 2.34862 8.55956
C 2.39036 3.0486 0.422054
C 2.36435 3.03673 1.30154
C 2.17292 3.29902 2.25227
C 2.28453 3.17747 2.99095
C 2.13943 3.09623 3.8843
C 2.34624 3.21543 4.85954
C 2.10057 3.06833 5.92067
C 2.42319 3.27323 6.83345
C 2.19688 3.14951 7.73656
C 2.30546 3.15322 8.61049
C 2.30083 4.02809 0.417546
C 2.18953 4.03358 1.17349
C 2.34244 3.96552 2.25004
C 2.14595 4.16911 3.07473
C 2.24516 4.12515 3.90274
C 2.33256 3.88022 5.09497
C 2.35421 4.18749 5.84615
C 2.33481 3.88217 6.60439
C 2.32283 4.16856 7.63219
C 2.42554 4.16377 8.66611
C 2.1948 4.95441 0.367182
C 2.08585 5.06704 1.36531
C 2.24094 4.88642 2.19009
C 2.30538 4.79439 3.16976
C 2.07931 5.00232 4.20037
C 2.33261 4.88268 4.99485
C 2.27214 4.86955 5.92367
C 2.4255 4.77572 6.64578
C 2.37 5.04769 7.49735
C 2.39344 4.85426 8.69602
C 2.26671 5.81921 0.331651
C 2.16085 5.7497 1.43189
C 2.2412 5.99146 2.38007
C 2.10339 5.68059 3.12915
C 2.38139 5.9383 4.21342
C 2.09904 5.92485 5.09513
C 2.16529 5.96973 5.78229
C 2.12522 5.69549 6.57759
C 2.25745 5.75787 7.53668
C 2.09977 6.00203 8.3775
C 2.40827 6.72887 0.337807
C 2.30367 6.5983 1.28755
C 2.08158 6.74402 2.26704
C 2.15933 6.75237 3.05099
C 2.10612 6.63571 4.05998
C 2.30608 6.78986 4.8418
C 2.11211 6.57525 6.01466
C 2.38083 6.70626 6.65041
C 2.13262 6.79738 7.68459
C 2.26933 6.92242 8.41521
C 2.29331 7.71475 0.417814
C 2.38144 7.74106 1.46397
C 2.24696 7.611 2.26854
C 2.42602 7.82993 3.24441
C 2.19355 7.50623 3.96901
C 2.18698 7.63576 5.06896
C 2.20755 7.75587 5.77358
C 2.33084 7.65883 6.91566
C 2.30622 7.51875 7.52357
C 2.13639 7.57482 8.54242
C 2.29813 8.63003 0.585355
C 2.32875 8.4218 1.22114
C 2.31207 8.54732 2.19275
C 2.33282 8.4621 3.29894
C 2.32912 8.45868 3.91339
C 2.38272 8.66289 5.11381
C 2.07274 8.65719 5.97718
C 2.07043 8.68565 6.67182
C 2.32362 8.50381 7.52075
C 2.15772 8.44191 8.72193
C 3.09497 0.333494 0.370708
C 3.21044 0.320326 1.35544
C 3.1994 0.523698 2.13656
C 3.05827 0.550782 3.19835
C 3.29275 0.298731 3.99541
C 3.00774 0.565679 4.7995
C 3.02916 0.529506 5.77893
C 3.14198 0.604776 6.70232
C 3.10663 0.493999 7.6932
C 3.09853 0.434259 8.58448
C 3.13554 1.2759 0.574407
C 3.18436 1.45646 1.39845
C 3.11623 1.4808 2.41484
C 3.06839 1.25262 3.04617
C 3.28815 1.31254 4.13009
C 3.21313 1.4625 5.07008
C 3.11922 1.35783 5.99728
C 3.14803 1.33428 6.71067
C 3.16519 1.40773 7.7189
C 3.31573 1.45585 8.45587
C 3.24672 2.09702 0.386456
C 3.28691 2.23809 1.29512
C 3.17897 2.3634 2.26775
C 3.09427 2.34485 3.20821
C 3.32338 2.09775 4.06229
C 3.10896 2.24054 4.99998
C 3.27949 2.101 5.729
C 3.15397 2.40475 6.92539
C 3.25683 2.07012 7.67842
C 3.01818 2.1372 8.45739
C 3.23351 3.12425 0.338448
C 3.17414 3.07488 1.39124
C 3.27741 3.23202 2.31314
C 3.08308 3.1446 3.12351
C 3.25247 3.17148 3.95844
C 3.21729 3.28214 5.01722
C 3.30557 3.14641 5.999
C 3.27814 2.99477 6.67269
C 3.02383 3.07835 7.57086
C 3.23144 3.13816 8.55325
C 3.01984 4.16854 0.562124
C 3.01967 3.90882 1.27345
C 3.22385 3.93513 2.35612
C 3.21001 3.9412 3.06339
C 3.05251 4.17964 3.87982
C 3.19809 4.08761 4.89812
C 3.20463 3.8852 5.93255
C 3.2075 3.89818 6.75432
C 3.00051 4.06948 7.50637
C 3.00285 4.06108 8.65934
C 3.32634 4.89678 0.600566
C 3.27792 4.90407 1.22158
C 2.98585 4.81338 2.22709
C 3.25717 4.79615 3.19787
C 3.0666 5.04604 3.97931
C 2.99473 4.99632 4.8433
C 3.00616 4.806 5.86761
C 3.13953 5.06172 6.65573
C 3.17 4.78427 7.53147
C 3.27292 4.77266 8.72977
C 3.05062 5.9592 0.569634
C 3.24403 5.88086 1.19411
C 3.21888 5.77121 2.39129
C 3.24497 5.82877 3.06794
C 3.07571 6.01998 3.92611
C 3.1756 5.83323 4.92721
C 3.12884 5.85891 5.78489
C 3.26999 5.80005 6.70116
C 3.12263 5.85306 7.60306
C 3.28179 5.75264 8.72324
C 3.1289 6.70642 0.570636
C 3.16377 6.74203 1.25933
C 3.20386 6.64545 2.26555
C 3.14004 6.70744 3.09739
C 3.11332 6.61716 4.20771
C 3.1363 6.87289 5.02813
C 3.00641 6.59277 5.75597
C 3.12565 6.75801 6.65847
C 3.07202 6.83435 7.68384
C 3.01966 6.76718 8.55809
C 3.07765 7.8181 0.35708
C 3.11926 7.59807 1.51137
C 2.97839 7.71971 2.40628
C 3.17235 7.79672 3.01812
C 3.17265 7.82586 4.07929
C 3.23051 7.53134 5.06289
C 3.28177 7.57491 5.96147
C 3.16535 7.79577 6.60308
C 3.09186 7.59017 7.50322
C 3.2393 7.62895 8.69982
C 2.99543 8.45196 0.365083
C 2.99118 8.38017 1.38734
C 3.22047 8.57669 2.23981
C 3.29125 8.72704 3.25316
C 3.28342 8.43819 3.99493
C 3.19891 8.64941 4.97991
C 3.26656 8.44575 5.80243
C 3.18009 8.54662 6.77828
C 3.19838 8.45492 7.663
C 3.09743 8.47003 8.68571
C 3.95077 0.288225 0.585519
C 3.99038 0.369747 1.45475
C 4.10384 0.619955 2.08844
C 4.1112 0.464475 3.06497
C 3.87342 0.460939 3.94444
C 4.04022 0.295214 4.81879
C 3.87836 0.444479 5.9457
C 3.93679 0.409344 6.73108
C 3.89217 0.564641 7.69791
C 3.90263 0.421195 8.62692
C 4.06489 1.44019 0.384276
C 3.9096 1.52901 1.5163
C 3.9308 1.38044 2.32361
C 3.87707 1.49888 3.09177
C 4.16648 1.32963 4.03853
C 4.18475 1.36816 4.95686
C 4.22275 1.4127 5.91902
C 4.1323 1.51505 6.66847
C 3.94803 1.52254 7.68371
C 3.91563 1.33211 8.54938
C 3.99631 2.41836 0.442298
C 4.19518 2.21815 1.32736
C 4.00875 2.29913 2.18543
C 4.17228 2.12083 3.29728
C 3.96544 2.4128 4.17354
C 3.88734 2.32915 5.05032
C 3.88282 2.28251 5.80736
C 4.22467 2.15844 6.82567
C 4.03382 2.11456 7.59009
C 4.06371 2.34194 8.6968
C 3.88766 3.16823 0.532904
C 4.22519 3.17977 1.35362
C 4.00978 3.20915 2.09013
C 4.17276 3.23242 3.1739
C 3.90498 3.02152 3.9519
C 4.07318 3.22352 5.02399
C 4.18131 2.98401 6.01054
C 3.97447 3.13981 6.80713
C 4.11049 3.21425 7.8133
C 3.99888 3.28774 8.37891
C 4.19842 4.1689 0.521274
C 4.226 3.92517 1.33245
C 3.9676 4.00482 2.20526
C 4.13234 4.11889 3.22664
C 4.0749 4.22936 3.96054
C 4.221 4.17025 4.88864
C 4.14524 4.22828 5.88279
C 4.04255 4.08731 6.64954
C 4.0836 3.94372 7.78014
C 3.99008 3.9123 8.65192
C 4.20198 5.03364 0.308355
C 4.10208 5.04429 1.42702
C 4.02908 4.79065 2.3865
C 3.90624 5.10564 3.2541
C 4.04447 4.94247 4.19546
C 4.05694 4.92261 4.96279
C 4.08304 4.77447 5.97425
C 3.99898 4.92672 6.85521
C 4.00446 4.91727 7.63453
C 3.96716 5.06025 8.58519
C 4.06383 5.71387 0.289343
C 3.89248 5.79946 1.49303
C 3.91 5.88801 2.16279
C 3.92068 5.75501 3.18436
C 4.03314 5.79857 3.98406
C 3.94405 5.76672 5.00352
C 3.91813 6.02344 5.94338
C 4.16613 5.74922 6.69246
C 3.9745 5.90286 7.63279
C 3.89663 5.80382 8.56894
C 4.13521 6.84823 0.485488
C 3.97999 6.84817 1.41675
C 4.19954 6.60343 2.27065
C 4.12056 6.73115 3.13891
C 4.09841 6.82256 3.96914
C 3.99265 6.92327 5.08009
C 4.16016 6.68921 5.76587
C 4.07477 6.8901 6.62131
C 3.99623 6.57262 7.66555
C 4.12117 6.62181 8.6453
C 4.11743 7.7207 0.301255
C 3.92714 7.62471 1.43508
C 4.0564 7.61007 2.19695
C 4.19776 7.49186 3.23172
C 4.06085 7.52471 3.96754
C 4.22101 7.59124 4.9315
C 4.08818 7.5198 5.70283
C 4.0991 7.75686 6.63092
C 3.96855 7.762 7.62065
C 3.92786 7.52843 8.63283
C 3.99638 8.44288 0.419085
C 3.93618 8.64603 1.43141
C 3.92702 8.37834 2.18796
C 3.96775 8.56424 3.04948
C 4.01443 8.68937 3.91275
C 4.12353 8.49397 5.09393
C 4.17044 8.43489 5.84334
C 4.03315 8.64705 6.69898
C 4.08823 8.41703 7.64355
C 3.97181 8.4539 8.70478
C 5.03754 0.462839 0.593876
C 4.96191 0.457409 1.31487
C 4.95077 0.475888 2.11505
C 4.9252 0.549959 3.03642
C 5.06389 0.520069 4.14162
C 5.10072 0.301673 5.02342
C 4.85846 0.621703 5.89871
C 4.90637 0.489361 6.61035
C 4.99084 0.400025 7.6056
C 5.0399 0.408116 8.4056
C 4.85605 1.25536 0.303045
C 5.04026 1.24575 1.31246
C 5.03157 1.41838 2.39917
C 5.04108 1.35419 3.31844
C 4.92606 1.49175 4.03163
C 4.80898 1.40526 4.87156
C 4.90556 1.36693 6.02782
C 4.86727 1.30318 6.7959
C 4.97215 1.3042 7.64564
C 4.83385 1.51339 8.62731
C 5.06245 2.20431 0.425926
C 4.97338 2.07792 1.38516
C 5.07541 2.23462 2.20451
C 5.04972 2.07146 3.03975
C 4.826 2.25793 4.21344
C 5.04099 2.30292 4.86569
C 4.87923 2.34067 5.90436
C 4.82647 2.1626 6.67053
C 4.84482 2.38265 7.68081
C 4.79259 2.37127 8.40319
C 4.94044 2.9937 0.370005
C 5.07654 3.05014 1.29675
C 4.88722 3.12897 2.32624
C 5.01337 2.98523 3.25869
C 4.78625 3.16558 4.21964
C 4.90227 3.01664 4.99058
C 4.83464 3.2517 5.81393
C 4.8899 3.28874 6.76796
C 5.12915 3.09346 7.50041
C 5.03578 3.02927 8.70649
C 4.98355 4.20945 0.457189
C 4.80823 3.87678 1.28597
C 4.83645 4.05321 2.23247
C 4.85219 4.21997 3.30446
C 4.94081 3.962 3.977
C 4.88301 4.18268 5.10088
C 5.00578 4.11196 5.68063
C 4.82409 3.97894 6.62865
C 5.10543 4.17884 7.73637
C 5.07999 3.97001 8.39381
C 4.90801 4.88406 0.589742
C 4.95631 4.85263 1.45099
C 4.96779 4.82302 2.11623
C 4.88547 5.1035 3.30484
C 4.8422 5.01881 3.92326
C 5.02634 4.95258 5.03657
C 5.09402 4.8664 5.80166
C 5.0758 4.93001 6.63225
C 4.8177 5.08965 7.47465
C 5.09158 4.86707 8.67036
C 5.04924 5.87541 0.559424
C 4.79968 5.89266 1.19727
C 4.77609 5.72302 2.12646
C 5.05905 5.94854 3.26883
C 4.82242 5.85468 4.20117
C 5.12675 5.79712 5.01324
C 4.77454 5.93971 5.94718
C 4.89463 5.85367 6.92446
C 4.91571 5.96964 7.76222
C 4.96101 5.93774 8.66494
C 5.04392 6.58982 0.410317
C 5.07021 6.73238 1.45857
C 4.80405 6.73889 2.29372
C 4.97945 6.74211 3.01546
C 4.81423 6.57117 4.01325
C 5.04397 6.86477 5.07782
C 5.04495 6.71643 5.67979
C 4.78004 6.75815 6.87037
C 4.85596 6.68491 7.7396
C 5.02344 6.61312 8.72481
C 5.08755 7.81808 0.457792
C 4.86182 7.65329 1.2758
C 4.95719 7.58435 2.25438
C 5.12997 7.69245 3.0477
C 4.99814 7.5199 4.05089
C 4.81372 7.5431 4.97311
C 4.88898 7.77338 5.97029
C 4.83667 7.65204 6.84818
C 5.12857 7.51466 7.48644
C 4.96674 7.50477 8.39229
C 4.94346 8.39147 0.363143
C 4.94915 8.37149 1.3642
C 4.96875 8.67052 2.07345
C 5.11134 8.65917 3.11378
C 4.90537 8.3886 3.99804
C 5.05983 8.66691 4.93079
C 5.03782 8.5078 5.81941
C 4.95531 8.55331 6.88668
C 5.03237 8.40931 7.50549
C 4.78056 8.39021 8.50112
C 5.89363 0.427209 0.436197
C 5.70652 0.615688 1.46788
C 6.01174 0.372864 2.17962
C 5.92313 0.519052 3.07221
C 6.00731 0.520844 4.20223
C 5.91527 0.441681 4.81146
C 5.85722 0.398092 5.71727
C 5.95854 0.275962 6.68615
C 5.95395 0.505436 7.68097
C 5.83883 0.324138 8.54938
C 5.8254 1.25167 0.579298
C 6.00283 1.44577 1.31748
C 5.73052 1.38368 2.33471
C 5.84226 1.23611 3.11492
C 5.96278 1.50978 4.18968
C 5.93365 1.17303 4.86725
C 5.73683 1.45917 5.79303
C 5.88608 1.17665 6.71308
C 6.02077 1.23852 7.8167
C 5.99591 1.30131 8.51467
C 5.6779 2.07274 0.565165
C 5.70788 2.20113 1.4784
C 5.67508 2.19924 2.25287
C 5.78812 2.3049 3.10703
C 5.77385 2.17637 4.16099
C 5.71277 2.41715 4.83888
C 5.98244 2.22231 5.94756
C 5.79543 2.33298 6.69482
C 5.82776 2.08145 7.73356
C 5.87045 2.20157 8.51832
C 5.79964 3.16213 0.604368
C 5.78629 3.04909 1.26162
C 5.84254 3.07166 2.42617
C 5.7642 3.32742 3.1013
C 5.9277 2.99777 4.02231
C 5.97333 3.11149 4.94884
C 5.7279 3.01585 5.89771
C 5.67078 3.13327 6.64574
C 5.71076 3.28324 7.5117
C 6.00763 3.15704 8.43473
C 5.99129 4.16216 0.518397
C 5.92521 4.08628 1.28504
C 5.88166 4.04864 2.37575
C 5.83757 3.91795 3.15141
C 5.75625 4.19074 3.94796
C 5.82367 3.89356 5.07549
C 5.7855 3.98453 5.99413
C 5.75215 3.89454 6.76709
C 5.87422 3.98164 7.54793
C 5.72113 4.19449 8.51028
C 5.70767 4.95687 0.27994
C 5.68968 5.08831 1.34799
C 5.97191 5.10284 2.13801
C 5.68946 4.87861 3.24123
C 5.96268 5.10773 3.95621
C 5.97871 4.98405 4.79681
C 5.8222 4.91257 5.74952
C 5.80469 5.12463 6.62515
C 5.99353 4.97582 7.78794
C 5.74839 5.06844 8.71339
C 5.78374 5.68487 0.627365
C 6.02941 5.79414 1.35674
C 5.79425 6.00804 2.26812
C 5.75199 5.90819 3.00743
C 5.91933 5.83723 3.9699
C 5.67765 6.02769 4.90339
C 5.86961 5.75047 6.00086
C 5.9486 5.91266 6.57172
C 5.72508 5.84932 7.69088
C 5.97133 6.02407 8.46639
C 5.98451 6.62325 0.359505
C 5.89628 6.68769 1.31081
C 6.02589 6.89993 2.12383
C 5.72368 6.68359 3.05185
C 5.74052 6.67507 3.91006
C 5.71201 6.62655 4.80903
C 5.71714 6.91688 5.85292
C 5.89401 6.59205 6.73471
C 5.84436 6.67448 7.7856
C 5.74671 6.64957 8.72575
C 5.85975 7.69322 0.361195
C 5.87102 7.75228 1.3316
C 5.81273 7.72505 2.17297
C 5.82109 7.72087 3.05666
C 5.91183 7.49846 4.20035
C 5.86127 7.75742 5.03604
C 5.82727 7.59307 5.88094
C 5.95299 7.67873 6.8169
C 5.99177 7.57361 7.49352
C 6.00146 7.64494 8.47926
C 5.72569 8.42106 0.497819
C 5.67005 8.42138 1.36698
C 5.80706 8.61904 2.26693
C 5.9814 8.70195 3.06398
C 5.83174 8.42607 4.07962
C 5.79015 8.55843 4.83732
C 5.95077 8.67551 6.01183
C 5.89216 8.7013 6.61847
C 5.93193 8.48519 7.69113
C 5.97023 8.52028 8.40156
C 6.65631 0.48147 0.52917
C 6.80837 0.467025 1.29294
C 6.8015 0.58753 2.1544
C 6.67608 0.421112 3.26493
C 6.64432 0.55318 4.06913
C 6.78597 0.517387 4.95499
C 6.71649 0.274939 5.88051
C 6.57085 0.560668 6.62438
C 6.82444 0.586928 7.514
C 6.66707 0.603108 8.55282
C 6.64763 1.25488 0.595179
C 6.70038 1.46818 1.45175
C 6.90484 1.22676 2.38107
C 6.72508 1.28136 3.30937
C 6.87388 1.2044 3.90208
C 6.86571 1.43365 5.07711
C 6.84763 1.32926 5.82579
C 6.58553 1.21904 6.70357
C 6.80338 1.40684 7.56904
C 6.92309 1.37447 8.37954
C 6.67215 2.07804 0.477925
C 6.63812 2.18772 1.20501
C 6.68002 2.28149 2.31039
C 6.8139 2.38876 3.19478
C 6.91276 2.12517 4.0931
C 6.88862 2.1745 5.03536
C 6.78926 2.15128 5.82924
C 6.74637 2.14631 6.70877
C 6.79472 2.18169 7.6574
C 6.92942 2.38098 8.53098
C 6.68235 3.08609 0.273481
C 6.75223 3.12313 1.17637
C 6.65415 3.19461 2.1484
C 6.61246 3.13579 2.97722
C 6.88061 3.07507 3.93857
C 6.67048 3.28786 5.00319
C 6.83474 3.26899 5.88586
C 6.83394 3.16472 6.76786
C 6.75913 3.25221 7.55855
C 6.59982 3.061 8.56949
C 6.77118 4.05925 0.421094
C 6.57066 4.13718 1.38194
C 6.87244 4.13129 2.24819
C 6.90801 4.00736 3.29422
C 6.78069 3.91604 4.00119
C 6.92117 4.16617 4.79876
C 6.78079 3.896 5.98977
C 6.80767 4.18613 6.89875
C 6.90384 4.12081 7.60989
C 6.88744 4.17741 8.68847
C 6.6773 4.90607 0.43477
C 6.74408 4.79515 1.23935
C 6.80687 5.03964 2.1811
C 6.90043 4.94208 3.16536
C 6.7987 4.79403 4.11177
C 6.60796 4.91331 5.05813
C 6.78531 5.09137 5.7895
C 6.87025 4.87602 6.7411
C 6.88801 5.07186 7.71555
C 6.80993 4.93599 8.47059
C 6.91448 5.82744 0.35793
C 6.61757 5.69101 1.18408
C 6.65071 5.68788 2.39235
C 6.66866 5.67426 3.32592
C 6.82927 5.71947 4.04471
C 6.77766 6.01614 5.07374
C 6.74149 5.79496 5.97318
C 6.60241 5.77735 6.91004
C 6.65029 5.74348 7.72611
C 6.91056 5.87573 8.60563
C 6.77217 6.83632 0.462841
C 6.92315 6.5985 1.35154
C 6.68471 6.72155 2.192
C 6.8838 6.6264 3.32569
C 6.82524 6.577 4.19808
C 6.80525 6.6018 4.95033
C 6.84333 6.86401 6.01323
C 6.90858 6.85901 6.8836
C 6.92776 6.74705 7.70973
C 6.64362 6.5746 8.66049
C 6.80868 7.49028 0.59623
C 6.71936 7.55141 1.47044
C 6.75164 7.78726 2.32752
C 6.71272 7.50655 3.11365
C 6.73968 7.80137 4.08913
C 6.63044 7.72993 4.87079
C 6.71967 7.62467 5.94698
C 6.63401 7.52339 6.74431
C 6.85181 7.75804 7.60678
C 6.89104 7.47744 8.50787
C 6.73773 8.57712 0.477318
C 6.88468 8.38919 1.45051
C 6.58112 8.39638 2.20718
C 6.69561 8.51438 3.08767
C 6.70424 8.37056 4.00493
C 6.77045 8.51478 4.83937
C 6.71165 8.4219 5.69678
C 6.57816 8.66228 6.73242
C 6.82205 8.39065 7.55302
C 6.85982 8.51016 8.5404
C 7.61308 0.572883 0.429318
C 7.80818 0.352443 1.50121
C 7.74092 0.415661 2.19384
C 7.7648 0.316823 3.3226
C 7.59117 0.304609 4.13526
C 7.7654 0.275015 4.81551
C 7.66244 0.404155 5.73406
C 7.75771 0.285489 6.61619
C 7.67241 0.474926 7.54727
C 7.70175 0.517611 8.72619
C 7.54567 1.42742 0.612625
C 7.76469 1.45889 1.2354
C 7.61935 1.31486 2.36688
C 7.56589 1.40819 3.07791
C 7.77502 1.32136 4.04757
C 7.51613 1.4651 4.80511
C 7.82915 1.33723 5.81129
C 7.58209 1.47088 6.90875
C 7.79587 1.43423 7.47161
C 7.57677 1.36378 8.60163
C 7.75747 2.33086 0.448012
C 7.72248 2.19058 1.37289
C 7.49091 2.15434 2.29483
C 7.66477 2.14052 2.99962
C 7.48996 2.08029 3.99281
C 7.73383 2.17072 4.87689
C 7.55152 2.35141 5.93074
C 7.76012 2.28296 6.70036
C 7.53258 2.33076 7.81872
C 7.57522 2.21416 8.47173
C 7.6448 3.31342 0.542865
C 7.47371 2.9804 1.43777
C 7.55679 3.3184 2.20058
C 7.6291 3.18326 3.08826
C 7.57905 3.00238 4.18989
C 7.61777 3.1994 5.06216
C 7.80795 3.24685 5.76776
C 7.82015 3.01585 6.68985
C 7.54542 3.27937 7.55955
C 7.70483 3.05519 8.39151
C 7.57117 3.99094 0.41291
C 7.79362 4.04106 1.17457
C 7.52408 4.1852 2.16984
C 7.57977 4.15039 3.02924
C 7.64181 3.90605 3.90506
C 7.77881 3.89167 4.97279
C 7.64479 3.97136 5.74741
C 7.54253 4.20747 6.63396
C 7.55584 3.98439 7.61977
C 7.61703 3.93876 8.47135
C 7.73027 4.7794 0.545038
C 7.63846 4.97301 1.42086
C 7.67876 4.82294 2.35371
C 7.59063 5.05687 3.2438
C 7.64272 5.06363 3.96739
C 7.77837 4.91568 4.82004
C 7.57651 5.04471 5.74243
C 7.57793 5.04048 6.74348
C 7.54907 4.86487 7.57659
C 7.57515 4.83059 8.66046
C 7.68586 5.89408 0.465931
C 7.55839 5.86559 1.23949
C 7.61811 5.84842 2.31292
C 7.7827 5.85855 3.23579
C 7.72807 5.85148 4.09174
C 7.54687 5.90104 4.87955
C 7.67917 5.80474 5.92113
C 7.58126 5.71497 6.67308
C 7.6676 5.81627 7.77037
C 7.81582 6.00842 8.5548
C 7.62974 6.72879 0.378099
C 7.73216 6.71378 1.38967
C 7.66107 6.68207 2.12701
C 7.71758 6.74515 3.06785
C 7.59105 6.67231 4.08294
